<routes>
  <vType id="typeWEslow" accel="0.6" decel="4.5" sigma="0.5" length="6" minGap="2.5" maxSpeed="16.67" guiShape="passenger"/>
  <vType id="typeWEfast" accel="0.8" decel="4.5" sigma="0.5" length="6" minGap="2.5" maxSpeed="30" guiShape="passenger"/>
  <vType id="typeBus" accel="0.8" decel="4.5" sigma="0.8" length="10" minGap="3" maxSpeed="25" guiShape="bus" vClass="bus"/>
  <vType id="typeTrailer" accel="0.8" decel="4.5" sigma="0.8" length="14" minGap="3" maxSpeed="25" guiShape="truck" vClass="trailer"/>
  <vType id="typeTruck" accel="0.8" decel="4.5" sigma="0.5" length="8" minGap="3" maxSpeed="25" guiShape="truck" vClass="truck"/>
  <vType id="typeMotorcycle" accel="0.8" decel="4.5" sigma="0.8" length="3" minGap="4" maxSpeed="25" guiShape="motorcycle" vClass="motorcycle"/>


  <route id="right" edges="51o 1i 2o 52i" />
  <route id="left" edges="52o 2i 1o 51i" />
  <route id="rightInitial" edges="1i 2o 52i" />
  <route id="leftInitial" edges="2i 1o 51i" />
  <route id="down" edges="54o 4i 3o 53i" />

  <vehicle id="right_initial_0" type="typeWEfast" route="rightInitial" depart="0" departPos="0" departSpeed="max" />
  <vehicle id="left_initial_0" type="typeWEfast" route="leftInitial" depart="0" departPos="0" departSpeed="max" />
  <vehicle id="right_initial_1" type="typeWEfast" route="rightInitial" depart="0" departPos="120" departSpeed="max" />
  <vehicle id="left_initial_1" type="typeWEfast" route="leftInitial" depart="0" departPos="120" departSpeed="max" />
  <vehicle id="right_initial_2" type="typeWEfast" route="rightInitial" depart="0" departPos="240" departSpeed="max" />
  <vehicle id="left_initial_2" type="typeWEfast" route="leftInitial" depart="0" departPos="240" departSpeed="max" />
  <vehicle id="right_initial_3" type="typeWEfast" route="rightInitial" depart="0" departPos="360" departSpeed="max" />
  <vehicle id="left_initial_3" type="typeWEfast" route="leftInitial" depart="0" departPos="360" departSpeed="max" />
  <vehicle id="right_initial_4" type="typeWEfast" route="rightInitial" depart="0" departPos="480" departSpeed="max" />
  <vehicle id="left_initial_4" type="typeWEfast" route="leftInitial" depart="0" departPos="480" departSpeed="max" />
  <vehicle id="right_0" type="typeWEfast" route="right" depart="2" />
  <vehicle id="right_1" type="typeWEfast" route="right" depart="9" />
  <vehicle id="left_2" type="typeMotorcycle" route="left" depart="13" />
  <vehicle id="right_3" type="typeWEfast" route="right" depart="25" />
  <vehicle id="left_4" type="typeWEslow" route="left" depart="29" />
  <vehicle id="right_5" type="typeWEfast" route="right" depart="33" />
  <vehicle id="right_6" type="typeWEslow" route="right" depart="35" />
  <vehicle id="left_7" type="typeWEslow" route="left" depart="35" />
  <vehicle id="right_8" type="typeMotorcycle" route="right" depart="42" />
  <vehicle id="right_9" type="typeTruck" route="right" depart="47" />
  <vehicle id="right_10" type="typeWEfast" route="right" depart="51" />
  <vehicle id="left_11" type="typeWEslow" route="left" depart="51" />
  <vehicle id="down_12" type="typeBus" route="down" depart="51" color="1,0,0"/>
  <vehicle id="right_13" type="typeWEslow" route="right" depart="61" />
  <vehicle id="right_14" type="typeWEslow" route="right" depart="62" />
  <vehicle id="left_15" type="typeWEfast" route="left" depart="70" />
  <vehicle id="down_16" type="typeBus" route="down" depart="72" color="1,0,0"/>
  <vehicle id="left_17" type="typeWEslow" route="left" depart="78" />
  <vehicle id="left_18" type="typeMotorcycle" route="left" depart="84" />
  <vehicle id="left_19" type="typeTruck" route="left" depart="94" />
  <vehicle id="left_20" type="typeWEfast" route="left" depart="96" />
  <vehicle id="right_21" type="typeWEfast" route="right" depart="100" />
  <vehicle id="left_22" type="typeMotorcycle" route="left" depart="102" />
  <vehicle id="right_23" type="typeWEslow" route="right" depart="105" />
  <vehicle id="right_24" type="typeWEslow" route="right" depart="106" />
  <vehicle id="right_25" type="typeWEslow" route="right" depart="108" />
  <vehicle id="right_26" type="typeWEslow" route="right" depart="120" />
  <vehicle id="left_27" type="typeWEfast" route="left" depart="127" />
  <vehicle id="down_28" type="typeBus" route="down" depart="130" color="1,0,0"/>
  <vehicle id="left_29" type="typeTruck" route="left" depart="132" />
  <vehicle id="left_30" type="typeWEslow" route="left" depart="134" />
  <vehicle id="right_31" type="typeWEfast" route="right" depart="140" />
  <vehicle id="right_32" type="typeWEfast" route="right" depart="144" />
  <vehicle id="left_33" type="typeWEslow" route="left" depart="147" />
  <vehicle id="down_34" type="typeTrailer" route="down" depart="155" color="1,0,0"/>
  <vehicle id="down_35" type="typeBus" route="down" depart="156" color="1,0,0"/>
  <vehicle id="down_36" type="typeBus" route="down" depart="157" color="1,0,0"/>
  <vehicle id="left_37" type="typeWEslow" route="left" depart="177" />
  <vehicle id="left_38" type="typeMotorcycle" route="left" depart="180" />
  <vehicle id="right_39" type="typeWEfast" route="right" depart="183" />
  <vehicle id="right_40" type="typeWEslow" route="right" depart="184" />
  <vehicle id="left_41" type="typeWEslow" route="left" depart="186" />
  <vehicle id="down_42" type="typeBus" route="down" depart="188" color="1,0,0"/>
  <vehicle id="right_43" type="typeWEfast" route="right" depart="190" />
  <vehicle id="right_44" type="typeWEfast" route="right" depart="193" />
  <vehicle id="down_45" type="typeBus" route="down" depart="194" color="1,0,0"/>
  <vehicle id="right_46" type="typeWEslow" route="right" depart="197" />
  <vehicle id="left_47" type="typeWEslow" route="left" depart="204" />
  <vehicle id="left_48" type="typeWEslow" route="left" depart="209" />
  <vehicle id="right_49" type="typeWEfast" route="right" depart="213" />
  <vehicle id="left_50" type="typeWEslow" route="left" depart="218" />
  <vehicle id="left_51" type="typeWEfast" route="left" depart="222" />
  <vehicle id="right_52" type="typeMotorcycle" route="right" depart="223" />
  <vehicle id="left_53" type="typeWEfast" route="left" depart="224" />
  <vehicle id="left_54" type="typeWEslow" route="left" depart="235" />
  <vehicle id="right_55" type="typeWEfast" route="right" depart="238" />
  <vehicle id="down_56" type="typeBus" route="down" depart="251" color="1,0,0"/>
  <vehicle id="down_57" type="typeBus" route="down" depart="265" color="1,0,0"/>
  <vehicle id="right_58" type="typeMotorcycle" route="right" depart="266" />
  <vehicle id="down_59" type="typeBus" route="down" depart="274" color="1,0,0"/>
  <vehicle id="down_60" type="typeTrailer" route="down" depart="283" color="1,0,0"/>
  <vehicle id="right_61" type="typeWEfast" route="right" depart="284" />
  <vehicle id="right_62" type="typeWEfast" route="right" depart="285" />
  <vehicle id="left_63" type="typeWEfast" route="left" depart="287" />
  <vehicle id="right_64" type="typeWEslow" route="right" depart="288" />
  <vehicle id="right_65" type="typeWEfast" route="right" depart="293" />
  <vehicle id="down_66" type="typeBus" route="down" depart="297" color="1,0,0"/>
  <vehicle id="left_67" type="typeWEslow" route="left" depart="306" />
  <vehicle id="right_68" type="typeWEslow" route="right" depart="308" />
  <vehicle id="right_69" type="typeWEfast" route="right" depart="314" />
  <vehicle id="right_70" type="typeWEfast" route="right" depart="318" />
  <vehicle id="down_71" type="typeBus" route="down" depart="320" color="1,0,0"/>
  <vehicle id="left_72" type="typeWEfast" route="left" depart="326" />
  <vehicle id="left_73" type="typeWEslow" route="left" depart="328" />
  <vehicle id="left_74" type="typeWEfast" route="left" depart="333" />
  <vehicle id="left_75" type="typeWEslow" route="left" depart="339" />
  <vehicle id="left_76" type="typeWEslow" route="left" depart="341" />
  <vehicle id="right_77" type="typeWEslow" route="right" depart="344" />
  <vehicle id="left_78" type="typeMotorcycle" route="left" depart="348" />
  <vehicle id="right_79" type="typeTruck" route="right" depart="351" />
  <vehicle id="right_80" type="typeWEfast" route="right" depart="355" />
  <vehicle id="right_81" type="typeWEfast" route="right" depart="364" />
  <vehicle id="down_82" type="typeBus" route="down" depart="369" color="1,0,0"/>
  <vehicle id="down_83" type="typeBus" route="down" depart="377" color="1,0,0"/>
  <vehicle id="left_84" type="typeWEslow" route="left" depart="378" />
  <vehicle id="left_85" type="typeWEfast" route="left" depart="383" />
  <vehicle id="left_86" type="typeWEslow" route="left" depart="394" />
  <vehicle id="left_87" type="typeWEfast" route="left" depart="396" />
  <vehicle id="left_88" type="typeWEslow" route="left" depart="398" />
  <vehicle id="left_89" type="typeTruck" route="left" depart="402" />
  <vehicle id="right_90" type="typeWEslow" route="right" depart="408" />
  <vehicle id="left_91" type="typeWEfast" route="left" depart="409" />
  <vehicle id="left_92" type="typeMotorcycle" route="left" depart="420" />
  <vehicle id="right_93" type="typeWEfast" route="right" depart="424" />
  <vehicle id="left_94" type="typeWEfast" route="left" depart="426" />
  <vehicle id="left_95" type="typeWEfast" route="left" depart="440" />
  <vehicle id="right_96" type="typeWEfast" route="right" depart="448" />
  <vehicle id="right_97" type="typeWEfast" route="right" depart="450" />
  <vehicle id="left_98" type="typeWEslow" route="left" depart="450" />
  <vehicle id="right_99" type="typeWEfast" route="right" depart="454" />
  <vehicle id="right_100" type="typeWEslow" route="right" depart="455" />
  <vehicle id="right_101" type="typeWEslow" route="right" depart="463" />
  <vehicle id="left_102" type="typeMotorcycle" route="left" depart="465" />
  <vehicle id="down_103" type="typeBus" route="down" depart="467" color="1,0,0"/>
  <vehicle id="right_104" type="typeWEfast" route="right" depart="468" />
  <vehicle id="left_105" type="typeWEfast" route="left" depart="473" />
  <vehicle id="down_106" type="typeBus" route="down" depart="475" color="1,0,0"/>
  <vehicle id="left_107" type="typeWEslow" route="left" depart="477" />
  <vehicle id="right_108" type="typeMotorcycle" route="right" depart="485" />
  <vehicle id="right_109" type="typeWEfast" route="right" depart="486" />
  <vehicle id="right_110" type="typeWEslow" route="right" depart="489" />
  <vehicle id="right_111" type="typeWEfast" route="right" depart="492" />
  <vehicle id="left_112" type="typeWEfast" route="left" depart="492" />
  <vehicle id="down_113" type="typeBus" route="down" depart="494" color="1,0,0"/>
  <vehicle id="left_114" type="typeWEfast" route="left" depart="498" />
  <vehicle id="down_115" type="typeBus" route="down" depart="499" color="1,0,0"/>
  <vehicle id="right_116" type="typeWEslow" route="right" depart="503" />
  <vehicle id="down_117" type="typeBus" route="down" depart="505" color="1,0,0"/>
  <vehicle id="right_118" type="typeWEslow" route="right" depart="507" />
  <vehicle id="right_119" type="typeWEfast" route="right" depart="510" />
  <vehicle id="right_120" type="typeWEfast" route="right" depart="511" />
  <vehicle id="down_121" type="typeBus" route="down" depart="512" color="1,0,0"/>
  <vehicle id="down_122" type="typeBus" route="down" depart="516" color="1,0,0"/>
  <vehicle id="left_123" type="typeWEfast" route="left" depart="519" />
  <vehicle id="right_124" type="typeWEslow" route="right" depart="525" />
  <vehicle id="right_125" type="typeWEfast" route="right" depart="526" />
  <vehicle id="right_126" type="typeWEfast" route="right" depart="528" />
  <vehicle id="right_127" type="typeWEfast" route="right" depart="529" />
  <vehicle id="right_128" type="typeWEslow" route="right" depart="532" />
  <vehicle id="right_129" type="typeWEfast" route="right" depart="535" />
  <vehicle id="down_130" type="typeTrailer" route="down" depart="537" color="1,0,0"/>
  <vehicle id="right_131" type="typeWEslow" route="right" depart="538" />
  <vehicle id="left_132" type="typeWEfast" route="left" depart="539" />
  <vehicle id="left_133" type="typeWEslow" route="left" depart="541" />
  <vehicle id="left_134" type="typeWEfast" route="left" depart="542" />
  <vehicle id="down_135" type="typeBus" route="down" depart="546" color="1,0,0"/>
  <vehicle id="left_136" type="typeWEslow" route="left" depart="548" />
  <vehicle id="left_137" type="typeWEfast" route="left" depart="552" />
  <vehicle id="left_138" type="typeWEslow" route="left" depart="556" />
  <vehicle id="right_139" type="typeWEfast" route="right" depart="560" />
  <vehicle id="left_140" type="typeWEslow" route="left" depart="563" />
  <vehicle id="left_141" type="typeWEfast" route="left" depart="573" />
  <vehicle id="left_142" type="typeMotorcycle" route="left" depart="575" />
  <vehicle id="right_143" type="typeWEslow" route="right" depart="582" />
  <vehicle id="right_144" type="typeWEfast" route="right" depart="584" />
  <vehicle id="right_145" type="typeWEslow" route="right" depart="588" />
  <vehicle id="left_146" type="typeWEfast" route="left" depart="588" />
  <vehicle id="right_147" type="typeWEslow" route="right" depart="589" />
  <vehicle id="right_148" type="typeMotorcycle" route="right" depart="590" />
  <vehicle id="left_149" type="typeWEfast" route="left" depart="591" />
  <vehicle id="left_150" type="typeWEfast" route="left" depart="594" />
  <vehicle id="left_151" type="typeWEfast" route="left" depart="598" />
  <vehicle id="down_152" type="typeBus" route="down" depart="599" color="1,0,0"/>
  <vehicle id="right_153" type="typeWEfast" route="right" depart="601" />
  <vehicle id="right_154" type="typeWEfast" route="right" depart="602" />
  <vehicle id="left_155" type="typeWEfast" route="left" depart="615" />
  <vehicle id="left_156" type="typeWEslow" route="left" depart="620" />
  <vehicle id="down_157" type="typeBus" route="down" depart="621" color="1,0,0"/>
  <vehicle id="down_158" type="typeBus" route="down" depart="629" color="1,0,0"/>
  <vehicle id="right_159" type="typeTruck" route="right" depart="630" />
  <vehicle id="left_160" type="typeWEfast" route="left" depart="634" />
  <vehicle id="down_161" type="typeBus" route="down" depart="634" color="1,0,0"/>
  <vehicle id="right_162" type="typeWEfast" route="right" depart="637" />
  <vehicle id="right_163" type="typeWEfast" route="right" depart="638" />
  <vehicle id="down_164" type="typeTrailer" route="down" depart="644" color="1,0,0"/>
  <vehicle id="down_165" type="typeBus" route="down" depart="645" color="1,0,0"/>
  <vehicle id="right_166" type="typeWEslow" route="right" depart="650" />
  <vehicle id="left_167" type="typeWEslow" route="left" depart="650" />
  <vehicle id="right_168" type="typeWEslow" route="right" depart="652" />
  <vehicle id="right_169" type="typeTruck" route="right" depart="656" />
  <vehicle id="right_170" type="typeWEslow" route="right" depart="658" />
  <vehicle id="left_171" type="typeWEfast" route="left" depart="659" />
  <vehicle id="right_172" type="typeMotorcycle" route="right" depart="661" />
  <vehicle id="right_173" type="typeWEfast" route="right" depart="664" />
  <vehicle id="left_174" type="typeWEfast" route="left" depart="670" />
  <vehicle id="right_175" type="typeWEslow" route="right" depart="677" />
  <vehicle id="left_176" type="typeWEslow" route="left" depart="678" />
  <vehicle id="down_177" type="typeBus" route="down" depart="682" color="1,0,0"/>
  <vehicle id="left_178" type="typeWEslow" route="left" depart="683" />
  <vehicle id="down_179" type="typeBus" route="down" depart="684" color="1,0,0"/>
  <vehicle id="right_180" type="typeWEslow" route="right" depart="686" />
  <vehicle id="right_181" type="typeWEfast" route="right" depart="689" />
  <vehicle id="left_182" type="typeMotorcycle" route="left" depart="695" />
  <vehicle id="down_183" type="typeBus" route="down" depart="719" color="1,0,0"/>
  <vehicle id="right_184" type="typeWEslow" route="right" depart="720" />
  <vehicle id="down_185" type="typeBus" route="down" depart="731" color="1,0,0"/>
  <vehicle id="left_186" type="typeWEslow" route="left" depart="734" />
  <vehicle id="left_187" type="typeWEfast" route="left" depart="735" />
  <vehicle id="left_188" type="typeWEslow" route="left" depart="739" />
  <vehicle id="left_189" type="typeTruck" route="left" depart="745" />
  <vehicle id="right_190" type="typeWEslow" route="right" depart="746" />
  <vehicle id="right_191" type="typeWEslow" route="right" depart="749" />
  <vehicle id="left_192" type="typeWEfast" route="left" depart="750" />
  <vehicle id="right_193" type="typeWEslow" route="right" depart="763" />
  <vehicle id="right_194" type="typeWEfast" route="right" depart="772" />
  <vehicle id="left_195" type="typeWEfast" route="left" depart="779" />
  <vehicle id="right_196" type="typeWEfast" route="right" depart="784" />
  <vehicle id="left_197" type="typeWEslow" route="left" depart="793" />
  <vehicle id="right_198" type="typeMotorcycle" route="right" depart="794" />
  <vehicle id="down_199" type="typeBus" route="down" depart="797" color="1,0,0"/>
  <vehicle id="left_200" type="typeWEslow" route="left" depart="800" />
  <vehicle id="right_201" type="typeWEfast" route="right" depart="801" />
  <vehicle id="down_202" type="typeBus" route="down" depart="806" color="1,0,0"/>
  <vehicle id="down_203" type="typeBus" route="down" depart="808" color="1,0,0"/>
  <vehicle id="right_204" type="typeWEslow" route="right" depart="809" />
  <vehicle id="right_205" type="typeWEslow" route="right" depart="810" />
  <vehicle id="down_206" type="typeBus" route="down" depart="810" color="1,0,0"/>
  <vehicle id="left_207" type="typeWEslow" route="left" depart="814" />
  <vehicle id="down_208" type="typeBus" route="down" depart="817" color="1,0,0"/>
  <vehicle id="left_209" type="typeTruck" route="left" depart="819" />
  <vehicle id="right_210" type="typeWEslow" route="right" depart="828" />
  <vehicle id="left_211" type="typeWEslow" route="left" depart="833" />
  <vehicle id="right_212" type="typeMotorcycle" route="right" depart="834" />
  <vehicle id="left_213" type="typeWEfast" route="left" depart="834" />
  <vehicle id="left_214" type="typeWEfast" route="left" depart="843" />
  <vehicle id="left_215" type="typeWEfast" route="left" depart="848" />
  <vehicle id="down_216" type="typeBus" route="down" depart="848" color="1,0,0"/>
  <vehicle id="right_217" type="typeWEslow" route="right" depart="850" />
  <vehicle id="right_218" type="typeWEslow" route="right" depart="861" />
  <vehicle id="right_219" type="typeWEfast" route="right" depart="863" />
  <vehicle id="left_220" type="typeWEfast" route="left" depart="866" />
  <vehicle id="left_221" type="typeWEslow" route="left" depart="867" />
  <vehicle id="left_222" type="typeWEfast" route="left" depart="868" />
  <vehicle id="down_223" type="typeBus" route="down" depart="869" color="1,0,0"/>
  <vehicle id="left_224" type="typeWEfast" route="left" depart="872" />
  <vehicle id="right_225" type="typeWEfast" route="right" depart="876" />
  <vehicle id="left_226" type="typeWEslow" route="left" depart="877" />
  <vehicle id="left_227" type="typeWEfast" route="left" depart="880" />
  <vehicle id="down_228" type="typeBus" route="down" depart="884" color="1,0,0"/>
  <vehicle id="down_229" type="typeBus" route="down" depart="885" color="1,0,0"/>
  <vehicle id="right_230" type="typeWEfast" route="right" depart="886" />
  <vehicle id="down_231" type="typeBus" route="down" depart="887" color="1,0,0"/>
  <vehicle id="right_232" type="typeWEfast" route="right" depart="891" />
  <vehicle id="left_233" type="typeWEslow" route="left" depart="893" />
  <vehicle id="left_234" type="typeWEslow" route="left" depart="895" />
  <vehicle id="right_235" type="typeWEfast" route="right" depart="900" />
  <vehicle id="left_236" type="typeWEfast" route="left" depart="900" />
  <vehicle id="right_237" type="typeWEslow" route="right" depart="901" />
  <vehicle id="right_238" type="typeMotorcycle" route="right" depart="906" />
  <vehicle id="right_239" type="typeTruck" route="right" depart="908" />
  <vehicle id="right_240" type="typeWEslow" route="right" depart="912" />
  <vehicle id="right_241" type="typeWEfast" route="right" depart="916" />
  <vehicle id="left_242" type="typeMotorcycle" route="left" depart="917" />
  <vehicle id="left_243" type="typeWEfast" route="left" depart="924" />
  <vehicle id="left_244" type="typeWEfast" route="left" depart="928" />
  <vehicle id="right_245" type="typeWEslow" route="right" depart="929" />
  <vehicle id="left_246" type="typeWEfast" route="left" depart="930" />
  <vehicle id="right_247" type="typeWEfast" route="right" depart="935" />
  <vehicle id="left_248" type="typeMotorcycle" route="left" depart="935" />
  <vehicle id="down_249" type="typeBus" route="down" depart="936" color="1,0,0"/>
  <vehicle id="left_250" type="typeWEslow" route="left" depart="938" />
  <vehicle id="left_251" type="typeWEfast" route="left" depart="939" />
  <vehicle id="right_252" type="typeMotorcycle" route="right" depart="940" />
  <vehicle id="right_253" type="typeWEslow" route="right" depart="950" />
  <vehicle id="down_254" type="typeTrailer" route="down" depart="950" color="1,0,0"/>
  <vehicle id="down_255" type="typeBus" route="down" depart="956" color="1,0,0"/>
  <vehicle id="left_256" type="typeWEfast" route="left" depart="957" />
  <vehicle id="right_257" type="typeWEfast" route="right" depart="962" />
  <vehicle id="right_258" type="typeMotorcycle" route="right" depart="972" />
  <vehicle id="right_259" type="typeTruck" route="right" depart="978" />
  <vehicle id="down_260" type="typeTrailer" route="down" depart="978" color="1,0,0"/>
  <vehicle id="left_261" type="typeWEfast" route="left" depart="980" />
  <vehicle id="down_262" type="typeBus" route="down" depart="984" color="1,0,0"/>
  <vehicle id="left_263" type="typeWEslow" route="left" depart="988" />
  <vehicle id="down_264" type="typeTrailer" route="down" depart="990" color="1,0,0"/>
  <vehicle id="left_265" type="typeWEfast" route="left" depart="995" />
  <vehicle id="right_266" type="typeWEfast" route="right" depart="998" />
  <vehicle id="left_267" type="typeWEslow" route="left" depart="1003" />
  <vehicle id="left_268" type="typeWEslow" route="left" depart="1006" />
  <vehicle id="left_269" type="typeWEfast" route="left" depart="1026" />
  <vehicle id="right_270" type="typeWEslow" route="right" depart="1027" />
  <vehicle id="right_271" type="typeWEslow" route="right" depart="1035" />
  <vehicle id="right_272" type="typeWEfast" route="right" depart="1037" />
  <vehicle id="down_273" type="typeBus" route="down" depart="1040" color="1,0,0"/>
  <vehicle id="right_274" type="typeWEslow" route="right" depart="1043" />
  <vehicle id="right_275" type="typeWEfast" route="right" depart="1046" />
  <vehicle id="left_276" type="typeWEslow" route="left" depart="1047" />
  <vehicle id="right_277" type="typeWEslow" route="right" depart="1048" />
  <vehicle id="right_278" type="typeWEslow" route="right" depart="1049" />
  <vehicle id="left_279" type="typeWEfast" route="left" depart="1049" />
  <vehicle id="down_280" type="typeTrailer" route="down" depart="1051" color="1,0,0"/>
  <vehicle id="left_281" type="typeWEfast" route="left" depart="1052" />
  <vehicle id="left_282" type="typeMotorcycle" route="left" depart="1057" />
  <vehicle id="right_283" type="typeWEslow" route="right" depart="1058" />
  <vehicle id="left_284" type="typeWEfast" route="left" depart="1058" />
  <vehicle id="right_285" type="typeWEslow" route="right" depart="1059" />
  <vehicle id="left_286" type="typeWEslow" route="left" depart="1059" />
  <vehicle id="left_287" type="typeWEfast" route="left" depart="1060" />
  <vehicle id="down_288" type="typeBus" route="down" depart="1063" color="1,0,0"/>
  <vehicle id="left_289" type="typeTruck" route="left" depart="1065" />
  <vehicle id="right_290" type="typeWEslow" route="right" depart="1066" />
  <vehicle id="right_291" type="typeWEfast" route="right" depart="1068" />
  <vehicle id="right_292" type="typeMotorcycle" route="right" depart="1069" />
  <vehicle id="left_293" type="typeWEslow" route="left" depart="1070" />
  <vehicle id="down_294" type="typeTrailer" route="down" depart="1070" color="1,0,0"/>
  <vehicle id="right_295" type="typeWEslow" route="right" depart="1071" />
  <vehicle id="down_296" type="typeBus" route="down" depart="1074" color="1,0,0"/>
  <vehicle id="right_297" type="typeWEslow" route="right" depart="1077" />
  <vehicle id="right_298" type="typeMotorcycle" route="right" depart="1084" />
  <vehicle id="right_299" type="typeTruck" route="right" depart="1089" />
  <vehicle id="right_300" type="typeWEslow" route="right" depart="1090" />
  <vehicle id="down_301" type="typeBus" route="down" depart="1092" color="1,0,0"/>
  <vehicle id="right_302" type="typeMotorcycle" route="right" depart="1095" />
  <vehicle id="right_303" type="typeWEslow" route="right" depart="1104" />
  <vehicle id="down_304" type="typeTrailer" route="down" depart="1106" color="1,0,0"/>
  <vehicle id="left_305" type="typeWEfast" route="left" depart="1110" />
  <vehicle id="right_306" type="typeWEfast" route="right" depart="1118" />
  <vehicle id="right_307" type="typeWEslow" route="right" depart="1125" />
  <vehicle id="down_308" type="typeBus" route="down" depart="1139" color="1,0,0"/>
  <vehicle id="right_309" type="typeWEfast" route="right" depart="1143" />
  <vehicle id="left_310" type="typeWEslow" route="left" depart="1144" />
  <vehicle id="left_311" type="typeWEfast" route="left" depart="1147" />
  <vehicle id="left_312" type="typeWEfast" route="left" depart="1149" />
  <vehicle id="right_313" type="typeWEslow" route="right" depart="1153" />
  <vehicle id="left_314" type="typeWEslow" route="left" depart="1153" />
  <vehicle id="right_315" type="typeWEslow" route="right" depart="1154" />
  <vehicle id="left_316" type="typeWEfast" route="left" depart="1154" />
  <vehicle id="right_317" type="typeWEslow" route="right" depart="1156" />
  <vehicle id="left_318" type="typeMotorcycle" route="left" depart="1158" />
  <vehicle id="left_319" type="typeWEfast" route="left" depart="1161" />
  <vehicle id="left_320" type="typeWEslow" route="left" depart="1164" />
  <vehicle id="right_321" type="typeWEfast" route="right" depart="1166" />
  <vehicle id="down_322" type="typeBus" route="down" depart="1167" color="1,0,0"/>
  <vehicle id="right_323" type="typeWEslow" route="right" depart="1170" />
  <vehicle id="right_324" type="typeWEslow" route="right" depart="1181" />
  <vehicle id="down_325" type="typeBus" route="down" depart="1181" color="1,0,0"/>
  <vehicle id="right_326" type="typeWEslow" route="right" depart="1188" />
  <vehicle id="down_327" type="typeBus" route="down" depart="1197" color="1,0,0"/>
  <vehicle id="right_328" type="typeMotorcycle" route="right" depart="1209" />
  <vehicle id="right_329" type="typeWEfast" route="right" depart="1211" />
  <vehicle id="right_330" type="typeWEfast" route="right" depart="1212" />
  <vehicle id="left_331" type="typeWEslow" route="left" depart="1213" />
  <vehicle id="right_332" type="typeMotorcycle" route="right" depart="1216" />
  <vehicle id="right_333" type="typeWEslow" route="right" depart="1219" />
  <vehicle id="left_334" type="typeWEslow" route="left" depart="1228" />
  <vehicle id="left_335" type="typeWEfast" route="left" depart="1235" />
  <vehicle id="down_336" type="typeBus" route="down" depart="1236" color="1,0,0"/>
  <vehicle id="right_337" type="typeWEfast" route="right" depart="1238" />
  <vehicle id="left_338" type="typeMotorcycle" route="left" depart="1239" />
  <vehicle id="right_339" type="typeTruck" route="right" depart="1250" />
  <vehicle id="right_340" type="typeWEslow" route="right" depart="1256" />
  <vehicle id="down_341" type="typeBus" route="down" depart="1257" color="1,0,0"/>
  <vehicle id="right_342" type="typeWEfast" route="right" depart="1260" />
  <vehicle id="left_343" type="typeWEslow" route="left" depart="1264" />
  <vehicle id="left_344" type="typeWEfast" route="left" depart="1270" />
  <vehicle id="right_345" type="typeWEslow" route="right" depart="1271" />
  <vehicle id="left_346" type="typeWEfast" route="left" depart="1276" />
  <vehicle id="down_347" type="typeBus" route="down" depart="1278" color="1,0,0"/>
  <vehicle id="right_348" type="typeWEslow" route="right" depart="1280" />
  <vehicle id="right_349" type="typeWEfast" route="right" depart="1289" />
  <vehicle id="down_350" type="typeTrailer" route="down" depart="1289" color="1,0,0"/>
  <vehicle id="left_351" type="typeWEslow" route="left" depart="1300" />
  <vehicle id="left_352" type="typeMotorcycle" route="left" depart="1303" />
  <vehicle id="left_353" type="typeWEfast" route="left" depart="1307" />
  <vehicle id="down_354" type="typeTrailer" route="down" depart="1307" color="1,0,0"/>
  <vehicle id="left_355" type="typeWEslow" route="left" depart="1312" />
  <vehicle id="left_356" type="typeWEslow" route="left" depart="1314" />
  <vehicle id="left_357" type="typeWEslow" route="left" depart="1317" />
  <vehicle id="left_358" type="typeWEslow" route="left" depart="1319" />
  <vehicle id="down_359" type="typeBus" route="down" depart="1321" color="1,0,0"/>
  <vehicle id="right_360" type="typeWEfast" route="right" depart="1322" />
  <vehicle id="right_361" type="typeWEslow" route="right" depart="1324" />
  <vehicle id="left_362" type="typeWEfast" route="left" depart="1325" />
  <vehicle id="right_363" type="typeWEfast" route="right" depart="1331" />
  <vehicle id="left_364" type="typeWEfast" route="left" depart="1332" />
  <vehicle id="right_365" type="typeWEfast" route="right" depart="1335" />
  <vehicle id="left_366" type="typeWEslow" route="left" depart="1336" />
  <vehicle id="left_367" type="typeWEslow" route="left" depart="1340" />
  <vehicle id="left_368" type="typeMotorcycle" route="left" depart="1347" />
  <vehicle id="left_369" type="typeTruck" route="left" depart="1351" />