<?xml version="1.0" encoding="UTF-8"?>
<nodes xmlns:xsi="http://www.w3.org/2001/XMLSchema-instance" xsi:noNamespaceSchemaLocation="http://sumo.dlr.de/xsd/nodes_file.xsd">

   <!-- Output junction of the upper south loop -->
   <node id="OUTEJUN0" x="-85" y="83.42"/>
   <node id="OUTEJUN1" x="-110" y="81.82"/>
   <node id="OUTEJUN2" x="-110.00317958179" y="81.819999873382"/>
   <node id="OUTEJUN3" x="-113.727717913" y="81.636725057785"/>
   <node id="OUTEJUN4" x="-117.4163581704" y="81.089273655094"/>
   <node id="OUTEJUN5" x="-121.03357859959" y="80.18291764439"/>
   <node id="OUTEJUN6" x="-124.54454522199" y="78.926385270601"/>
   <node id="OUTEJUN7" x="-127.91544728746" y="77.33177699115"/>
   <node id="OUTEJUN8" x="-131.11382287319" y="75.414448948064"/>
   <node id="OUTEJUN9" x="-134.10887149333" y="73.192865087705"/>
   <node id="OUTEJUN10" x="-136.87175070891" y="70.688419352224"/>
   <node id="OUTEJUN11" x="-139.37585388169" y="67.925229655034"/>
   <node id="OUTEJUN12" x="-141.59706639713" y="64.929905624332"/>
   <node id="OUTEJUN13" x="-143.51399788916" y="61.731292351307"/>
   <node id="OUTEJUN14" x="-145.10818823022" y="58.360192610747"/>
   <node id="OUTEJUN15" x="-146.36428530304" y="54.849070229078"/>
   <node id="OUTEJUN16" x="-147.27019284217" y="51.231737456406"/>
   <node id="OUTEJUN17" x="-147.81718692148" y="47.543029353184"/>
   <node id="OUTEJUN18" x="-147.99999996593" y="43.818468327176"/>
   <node id="OUTEJUN19" x="-147.81687147853" y="40.09392205124"/>
   <node id="OUTEJUN20" x="-147.26956499399" y="36.405258056187"/>
   <node id="OUTEJUN21" x="-146.36335109584" y="32.787998325019"/>
   <node id="OUTEJUN22" x="-145.10695666045" y="29.276977214797"/>
   <node id="OUTEJUN23" x="-143.51248081689" y="25.906006000377"/>
   <node id="OUTEJUN24" x="-141.59527843182" y="22.707547270474"/>
   <node id="OUTEJUN25" x="-139.37381224152" y="19.712402311621"/>
   <node id="OUTEJUN26" x="-136.86947505497" y="16.949414490536"/>
   <node id="OUTEJUN27" x="-134.10638374025" y="14.445191491342"/>
   <node id="OUTEJUN28" x="-131.11114697813" y="12.223849082492"/>
   <node id="OUTEJUN29" x="-127.91260901939" y="10.306778880949"/>
   <node id="OUTEJUN30" x="-124.54157191356" y="8.7124423500516"/>
   <node id="OUTEJUN31" x="-121.03049888388" y="7.4561930148759"/>
   <node id="OUTEJUN32" x="-117.41320170519" y="6.5501286071724"/>
   <node id="OUTEJUN33" x="-113.72451509517" y="6.0029745637204"/>
   <node id="OUTEJUN34" x="-109.99996125462" y="5.8200000000198"/>
   <node id="OUTEJUN35" x="-53.599860418206" y="5.8200000002564"/>
   <node id="OUTEJUN36" x="-49.875201075981" y="6.0029949232408"/>
   <node id="OUTEJUN37" x="-46.18641375121" y="6.5501899799347"/>
   <node id="OUTEJUN38" x="-42.56902364834" y="7.4563153581885"/>
   <node id="OUTEJUN39" x="-39.057868374327" y="8.7126445344912"/>
   <node id="OUTEJUN40" x="-35.686762431871" y="10.307078315555"/>
   <node id="OUTEJUN41" x="-32.488171565747" y="12.224261360705"/>
   <node id="OUTEJUN42" x="-29.492900098475" y="14.445730062895"/>
   <node id="OUTEJUN43" x="-26.72979426647" y="16.950090364169"/>
   <node id="OUTEJUN44" x="-24.225464413711" y="19.713223793094"/>
   <node id="OUTEJUN45" x="-22.004028718395" y="22.708519739914"/>
   <node id="OUTEJUN46" x="-20.086880920603" y="25.907131732463"/>
   <node id="OUTEJUN47" x="-18.492484287926" y="29.278255244761"/>
   <node id="OUTEJUN48" x="-17.23619380328" y="32.789424362826"/>
   <node id="OUTEJUN49" x="-16.330108287329" y="36.40682445063"/>
   <node id="OUTEJUN50" x="-15.782953879686" y="40.095617805056"/>
   <node id="OUTEJUN51" x="-15.600000001025" y="43.820279163588"/>
   <node id="OUTEJUN52" x="-15.6" y="55"/>
   <node id="OUTEJUN53" x="-15.6" y="62"/>
   <node id="OUTEJUN54" x="-15.6" y="77"/>
   <node id="OUTEJUN55" x="-15.6" y="85"/>
   <node id="OUTEJUN56" x="-14" y="101"/>

   <!-- Straight road Est -->
   <node id="INSE0" x="-500" y="88.67"/>
   <node id="INSE1" x="-85" y="88.67"/>
   <node id="INSE2" x="-25" y="88.67"/>
   <node id="OUTNE2" x="25" y="88.67"/>
   <node id="OUTNE1" x="85" y="88.67"/>
   <node id="OUTNE0" x="500" y="88.67"/>

   <!-- Input junction of the upper north loop -->
   <node id="INEJUN0" x="85" y="83.42"/>
   <node id="INEJUN1" x="110" y="81.82"/>
   <node id="INEJUN2" x="110.00317958179" y="81.819999873382"/>
   <node id="INEJUN3" x="113.727717913" y="81.636725057785"/>
   <node id="INEJUN4" x="117.4163581704" y="81.089273655094"/>
   <node id="INEJUN5" x="121.03357859959" y="80.18291764439"/>
   <node id="INEJUN6" x="124.54454522199" y="78.926385270601"/>
   <node id="INEJUN7" x="127.91544728746" y="77.33177699115"/>
   <node id="INEJUN8" x="131.11382287319" y="75.414448948064"/>
   <node id="INEJUN9" x="134.10887149333" y="73.192865087705"/>
   <node id="INEJUN10" x="136.87175070891" y="70.688419352224"/>
   <node id="INEJUN11" x="139.37585388169" y="67.925229655034"/>
   <node id="INEJUN12" x="141.59706639713" y="64.929905624332"/>
   <node id="INEJUN13" x="143.51399788916" y="61.731292351307"/>
   <node id="INEJUN14" x="145.10818823022" y="58.360192610747"/>
   <node id="INEJUN15" x="146.36428530304" y="54.849070229078"/>
   <node id="INEJUN16" x="147.27019284217" y="51.231737456406"/>
   <node id="INEJUN17" x="147.81718692148" y="47.543029353184"/>
   <node id="INEJUN18" x="147.99999996593" y="43.818468327176"/>
   <node id="INEJUN19" x="147.81687147853" y="40.09392205124"/>
   <node id="INEJUN20" x="147.26956499399" y="36.405258056187"/>
   <node id="INEJUN21" x="146.36335109584" y="32.787998325019"/>
   <node id="INEJUN22" x="145.10695666045" y="29.276977214797"/>
   <node id="INEJUN23" x="143.51248081689" y="25.906006000377"/>
   <node id="INEJUN24" x="141.59527843182" y="22.707547270474"/>
   <node id="INEJUN25" x="139.37381224152" y="19.712402311621"/>
   <node id="INEJUN26" x="136.86947505497" y="16.949414490536"/>
   <node id="INEJUN27" x="134.10638374025" y="14.445191491342"/>
   <node id="INEJUN28" x="131.11114697813" y="12.223849082492"/>
   <node id="INEJUN29" x="127.91260901939" y="10.306778880949"/>
   <node id="INEJUN30" x="124.54157191356" y="8.7124423500516"/>
   <node id="INEJUN31" x="121.03049888388" y="7.4561930148759"/>
   <node id="INEJUN32" x="117.41320170519" y="6.5501286071724"/>
   <node id="INEJUN33" x="113.72451509517" y="6.0029745637204"/>
   <node id="INEJUN34" x="109.99996125462" y="5.8200000000198"/>
   <node id="INEJUN35" x="53.599860418206" y="5.8200000002564"/>
   <node id="INEJUN36" x="49.875201075981" y="6.0029949232408"/>
   <node id="INEJUN37" x="46.18641375121" y="6.5501899799347"/>
   <node id="INEJUN38" x="42.56902364834" y="7.4563153581885"/>
   <node id="INEJUN39" x="39.057868374327" y="8.7126445344912"/>
   <node id="INEJUN40" x="35.686762431871" y="10.307078315555"/>
   <node id="INEJUN41" x="32.488171565747" y="12.224261360705"/>
   <node id="INEJUN42" x="29.492900098475" y="14.445730062895"/>
   <node id="INEJUN43" x="26.72979426647" y="16.950090364169"/>
   <node id="INEJUN44" x="24.225464413711" y="19.713223793094"/>
   <node id="INEJUN45" x="22.004028718395" y="22.708519739914"/>
   <node id="INEJUN46" x="20.086880920603" y="25.907131732463"/>
   <node id="INEJUN47" x="18.492484287926" y="29.278255244761"/>
   <node id="INEJUN48" x="17.23619380328" y="32.789424362826"/>
   <node id="INEJUN49" x="16.330108287329" y="36.40682445063"/>
   <node id="INEJUN50" x="15.782953879686" y="40.095617805056"/>
   <node id="INEJUN51" x="15.600000001025" y="43.820279163588"/>
   <node id="INEJUN52" x="15.6" y="55"/>
   <node id="INEJUN53" x="15.6" y="62"/>
   <node id="INEJUN54" x="15.6" y="77"/>
   <node id="INEJUN55" x="15.6" y="85"/>
   <node id="INEJUN56" x="14" y="101"/>

   <!-- Upper South Loop -->
   <node id="UPSE0" x="-7" y="183"/>
   <node id="UPSE1" x="-7.433373867979" y="191.82153520238"/>
   <node id="UPSE2" x="-8.729321851706" y="200.55811434182"/>
   <node id="UPSE3" x="-10.875363284728" y="209.12559952733"/>
   <node id="UPSE4" x="-13.850830649784" y="217.44148133239"/>
   <node id="UPSE5" x="-17.627068617964" y="225.42567340447"/>
   <node id="UPSE6" x="-22.167710014719" y="233.00128373911"/>
   <node id="UPSE7" x="-27.429026055043" y="240.09535519068"/>
   <node id="UPSE8" x="-33.36034747487" y="246.63956808842"/>
   <node id="UPSE9" x="-39.904552502955" y="252.57089819107"/>
   <node id="UPSE10" x="-46.998616973836" y="257.83222364377"/>
   <node id="UPSE11" x="-54.574221283969" y="262.3728750918"/>
   <node id="UPSE12" x="-62.55840834575" y="266.14912365336"/>
   <node id="UPSE13" x="-70.874286202966" y="269.12460205188"/>
   <node id="UPSE14" x="-79.441768541114" y="271.2706548522"/>
   <node id="UPSE15" x="-88.178345961089" y="272.56661442757"/>
   <node id="UPSE16" x="-96.999880588459" y="272.99999999992"/>
   <node id="UPSE17" x="-105.82141636583" y="272.56663783631"/>
   <node id="UPSE18" x="-114.55799722472" y="271.27070144423"/>
   <node id="UPSE19" x="-123.12548525758" y="269.12467137851"/>
   <node id="UPSE20" x="-131.44137101046" y="266.14921504692"/>
   <node id="UPSE21" x="-139.42556809283" y="262.37298767213"/>
   <node id="UPSE22" x="-147.00118445196" y="257.83235632666"/>
   <node id="UPSE23" x="-154.09526288422" y="252.57104969872"/>
   <node id="UPSE24" x="-160.6394836516" y="246.63973696173"/>
   <node id="UPSE25" x="-166.57082243706" y="240.09553980331"/>
   <node id="UPSE26" x="-171.83215730212" y="233.00148231313"/>
   <node id="UPSE27" x="-176.37281880142" y="225.42588402752"/>
   <node id="UPSE28" x="-180.14907795636" y="217.44170197605"/>
   <node id="UPSE29" x="-183.12456738835" y="209.12582806669"/>
   <node id="UPSE30" x="-185.27063155595" y="200.55834857592"/>
   <node id="UPSE31" x="-186.56660272297" y="191.82177287543"/>
   <node id="UPSE32" x="-186.99999999968" y="183.00023882308"/>

   <!-- Upper South Loop -->
   <node id="UPSW0" x="-7" y="-183"/>
   <node id="UPSW1" x="-7.433373867979" y="-191.82153520238"/>
   <node id="UPSW2" x="-8.729321851706" y="-200.55811434182"/>
   <node id="UPSW3" x="-10.875363284728" y="-209.12559952733"/>
   <node id="UPSW4" x="-13.850830649784" y="-217.44148133239"/>
   <node id="UPSW5" x="-17.627068617964" y="-225.42567340447"/>
   <node id="UPSW6" x="-22.167710014719" y="-233.00128373911"/>
   <node id="UPSW7" x="-27.429026055043" y="-240.09535519068"/>
   <node id="UPSW8" x="-33.36034747487" y="-246.63956808842"/>
   <node id="UPSW9" x="-39.904552502955" y="-252.57089819107"/>
   <node id="UPSW10" x="-46.998616973836" y="-257.83222364377"/>
   <node id="UPSW11" x="-54.574221283969" y="-262.3728750918"/>
   <node id="UPSW12" x="-62.55840834575" y="-266.14912365336"/>
   <node id="UPSW13" x="-70.874286202966" y="-269.12460205188"/>
   <node id="UPSW14" x="-79.441768541114" y="-271.2706548522"/>
   <node id="UPSW15" x="-88.178345961089" y="-272.56661442757"/>
   <node id="UPSW16" x="-96.999880588459" y="-272.99999999992"/>
   <node id="UPSW17" x="-105.82141636583" y="-272.56663783631"/>
   <node id="UPSW18" x="-114.55799722472" y="-271.27070144423"/>
   <node id="UPSW19" x="-123.12548525758" y="-269.12467137851"/>
   <node id="UPSW20" x="-131.44137101046" y="-266.14921504692"/>
   <node id="UPSW21" x="-139.42556809283" y="-262.37298767213"/>
   <node id="UPSW22" x="-147.00118445196" y="-257.83235632666"/>
   <node id="UPSW23" x="-154.09526288422" y="-252.57104969872"/>
   <node id="UPSW24" x="-160.6394836516" y="-246.63973696173"/>
   <node id="UPSW25" x="-166.57082243706" y="-240.09553980331"/>
   <node id="UPSW26" x="-171.83215730212" y="-233.00148231313"/>
   <node id="UPSW27" x="-176.37281880142" y="-225.42588402752"/>
   <node id="UPSW28" x="-180.14907795636" y="-217.44170197605"/>
   <node id="UPSW29" x="-183.12456738835" y="-209.12582806669"/>
   <node id="UPSW30" x="-185.27063155595" y="-200.55834857592"/>
   <node id="UPSW31" x="-186.56660272297" y="-191.82177287543"/>
   <node id="UPSW32" x="-186.99999999968" y="-183.00023882308"/>

   <!-- Input junction of the upper south loop -->
   <node id="INWJUN0" x="-85" y="-83.42"/>
   <node id="INWJUN1" x="-110" y="-81.82"/>
   <node id="INWJUN2" x="-110.00317958179" y="-81.819999873382"/>
   <node id="INWJUN3" x="-113.727717913" y="-81.636725057785"/>
   <node id="INWJUN4" x="-117.4163581704" y="-81.089273655094"/>
   <node id="INWJUN5" x="-121.03357859959" y="-80.18291764439"/>
   <node id="INWJUN6" x="-124.54454522199" y="-78.926385270601"/>
   <node id="INWJUN7" x="-127.91544728746" y="-77.33177699115"/>
   <node id="INWJUN8" x="-131.11382287319" y="-75.414448948064"/>
   <node id="INWJUN9" x="-134.10887149333" y="-73.192865087705"/>
   <node id="INWJUN10" x="-136.87175070891" y="-70.688419352224"/>
   <node id="INWJUN11" x="-139.37585388169" y="-67.925229655034"/>
   <node id="INWJUN12" x="-141.59706639713" y="-64.929905624332"/>
   <node id="INWJUN13" x="-143.51399788916" y="-61.731292351307"/>
   <node id="INWJUN14" x="-145.10818823022" y="-58.360192610747"/>
   <node id="INWJUN15" x="-146.36428530304" y="-54.849070229078"/>
   <node id="INWJUN16" x="-147.27019284217" y="-51.231737456406"/>
   <node id="INWJUN17" x="-147.81718692148" y="-47.543029353184"/>
   <node id="INWJUN18" x="-147.99999996593" y="-43.818468327176"/>
   <node id="INWJUN19" x="-147.81687147853" y="-40.09392205124"/>
   <node id="INWJUN20" x="-147.26956499399" y="-36.405258056187"/>
   <node id="INWJUN21" x="-146.36335109584" y="-32.787998325019"/>
   <node id="INWJUN22" x="-145.10695666045" y="-29.276977214797"/>
   <node id="INWJUN23" x="-143.51248081689" y="-25.906006000377"/>
   <node id="INWJUN24" x="-141.59527843182" y="-22.707547270474"/>
   <node id="INWJUN25" x="-139.37381224152" y="-19.712402311621"/>
   <node id="INWJUN26" x="-136.86947505497" y="-16.949414490536"/>
   <node id="INWJUN27" x="-134.10638374025" y="-14.445191491342"/>
   <node id="INWJUN28" x="-131.11114697813" y="-12.223849082492"/>
   <node id="INWJUN29" x="-127.91260901939" y="-10.306778880949"/>
   <node id="INWJUN30" x="-124.54157191356" y="-8.7124423500516"/>
   <node id="INWJUN31" x="-121.03049888388" y="-7.4561930148759"/>
   <node id="INWJUN32" x="-117.41320170519" y="-6.5501286071724"/>
   <node id="INWJUN33" x="-113.72451509517" y="-6.0029745637204"/>
   <node id="INWJUN34" x="-109.99996125462" y="-5.8200000000198"/>
   <node id="INWJUN35" x="-53.599860418206" y="-5.8200000002564"/>
   <node id="INWJUN36" x="-49.875201075981" y="-6.0029949232408"/>
   <node id="INWJUN37" x="-46.18641375121" y="-6.5501899799347"/>
   <node id="INWJUN38" x="-42.56902364834" y="-7.4563153581885"/>
   <node id="INWJUN39" x="-39.057868374327" y="-8.7126445344912"/>
   <node id="INWJUN40" x="-35.686762431871" y="-10.307078315555"/>
   <node id="INWJUN41" x="-32.488171565747" y="-12.224261360705"/>
   <node id="INWJUN42" x="-29.492900098475" y="-14.445730062895"/>
   <node id="INWJUN43" x="-26.72979426647" y="-16.950090364169"/>
   <node id="INWJUN44" x="-24.225464413711" y="-19.713223793094"/>
   <node id="INWJUN45" x="-22.004028718395" y="-22.708519739914"/>
   <node id="INWJUN46" x="-20.086880920603" y="-25.907131732463"/>
   <node id="INWJUN47" x="-18.492484287926" y="-29.278255244761"/>
   <node id="INWJUN48" x="-17.23619380328" y="-32.789424362826"/>
   <node id="INWJUN49" x="-16.330108287329" y="-36.40682445063"/>
   <node id="INWJUN50" x="-15.782953879686" y="-40.095617805056"/>
   <node id="INWJUN51" x="-15.600000001025" y="-43.820279163588"/>
   <node id="INWJUN52" x="-15.6" y="-55"/>
   <node id="INWJUN53" x="-15.6" y="-62"/>
   <node id="INWJUN54" x="-15.6" y="-77"/>
   <node id="INWJUN55" x="-15.6" y="-85"/>
   <node id="INWJUN56" x="-14" y="-101"/>

   <!-- Straight road West -->
   <node id="OUTSW0" x="-500" y="-88.67"/>
   <node id="OUTSW1" x="-85" y="-88.67"/>
   <node id="OUTSW2" x="-25" y="-88.67"/>
   <node id="INNW2" x="25" y="-88.67"/>
   <node id="INNW1" x="85" y="-88.67"/>
   <node id="INNW0" x="500" y="-88.67"/>

   <!-- Output junction of the upper north loop -->
   <node id="OUTWJUN0" x="85" y="-83.42"/>
   <node id="OUTWJUN1" x="110" y="-81.82"/>
   <node id="OUTWJUN2" x="110.00317958179" y="-81.819999873382"/>
   <node id="OUTWJUN3" x="113.727717913" y="-81.636725057785"/>
   <node id="OUTWJUN4" x="117.4163581704" y="-81.089273655094"/>
   <node id="OUTWJUN5" x="121.03357859959" y="-80.18291764439"/>
   <node id="OUTWJUN6" x="124.54454522199" y="-78.926385270601"/>
   <node id="OUTWJUN7" x="127.91544728746" y="-77.33177699115"/>
   <node id="OUTWJUN8" x="131.11382287319" y="-75.414448948064"/>
   <node id="OUTWJUN9" x="134.10887149333" y="-73.192865087705"/>
   <node id="OUTWJUN10" x="136.87175070891" y="-70.688419352224"/>
   <node id="OUTWJUN11" x="139.37585388169" y="-67.925229655034"/>
   <node id="OUTWJUN12" x="141.59706639713" y="-64.929905624332"/>
   <node id="OUTWJUN13" x="143.51399788916" y="-61.731292351307"/>
   <node id="OUTWJUN14" x="145.10818823022" y="-58.360192610747"/>
   <node id="OUTWJUN15" x="146.36428530304" y="-54.849070229078"/>
   <node id="OUTWJUN16" x="147.27019284217" y="-51.231737456406"/>
   <node id="OUTWJUN17" x="147.81718692148" y="-47.543029353184"/>
   <node id="OUTWJUN18" x="147.99999996593" y="-43.818468327176"/>
   <node id="OUTWJUN19" x="147.81687147853" y="-40.09392205124"/>
   <node id="OUTWJUN20" x="147.26956499399" y="-36.405258056187"/>
   <node id="OUTWJUN21" x="146.36335109584" y="-32.787998325019"/>
   <node id="OUTWJUN22" x="145.10695666045" y="-29.276977214797"/>
   <node id="OUTWJUN23" x="143.51248081689" y="-25.906006000377"/>
   <node id="OUTWJUN24" x="141.59527843182" y="-22.707547270474"/>
   <node id="OUTWJUN25" x="139.37381224152" y="-19.712402311621"/>
   <node id="OUTWJUN26" x="136.86947505497" y="-16.949414490536"/>
   <node id="OUTWJUN27" x="134.10638374025" y="-14.445191491342"/>
   <node id="OUTWJUN28" x="131.11114697813" y="-12.223849082492"/>
   <node id="OUTWJUN29" x="127.91260901939" y="-10.306778880949"/>
   <node id="OUTWJUN30" x="124.54157191356" y="-8.7124423500516"/>
   <node id="OUTWJUN31" x="121.03049888388" y="-7.4561930148759"/>
   <node id="OUTWJUN32" x="117.41320170519" y="-6.5501286071724"/>
   <node id="OUTWJUN33" x="113.72451509517" y="-6.0029745637204"/>
   <node id="OUTWJUN34" x="109.99996125462" y="-5.8200000000198"/>
   <node id="OUTWJUN35" x="53.599860418206" y="-5.8200000002564"/>
   <node id="OUTWJUN36" x="49.875201075981" y="-6.0029949232408"/>
   <node id="OUTWJUN37" x="46.18641375121" y="-6.5501899799347"/>
   <node id="OUTWJUN38" x="42.56902364834" y="-7.4563153581885"/>
   <node id="OUTWJUN39" x="39.057868374327" y="-8.7126445344912"/>
   <node id="OUTWJUN40" x="35.686762431871" y="-10.307078315555"/>
   <node id="OUTWJUN41" x="32.488171565747" y="-12.224261360705"/>
   <node id="OUTWJUN42" x="29.492900098475" y="-14.445730062895"/>
   <node id="OUTWJUN43" x="26.72979426647" y="-16.950090364169"/>
   <node id="OUTWJUN44" x="24.225464413711" y="-19.713223793094"/>
   <node id="OUTWJUN45" x="22.004028718395" y="-22.708519739914"/>
   <node id="OUTWJUN46" x="20.086880920603" y="-25.907131732463"/>
   <node id="OUTWJUN47" x="18.492484287926" y="-29.278255244761"/>
   <node id="OUTWJUN48" x="17.23619380328" y="-32.789424362826"/>
   <node id="OUTWJUN49" x="16.330108287329" y="-36.40682445063"/>
   <node id="OUTWJUN50" x="15.782953879686" y="-40.095617805056"/>
   <node id="OUTWJUN51" x="15.600000001025" y="-43.820279163588"/>
   <node id="OUTWJUN52" x="15.6" y="-55"/>
   <node id="OUTWJUN53" x="15.6" y="-62"/>
   <node id="OUTWJUN54" x="15.6" y="-77"/>
   <node id="OUTWJUN55" x="15.6" y="-85"/>
   <node id="OUTWJUN56" x="14" y="-101"/>

   <!-- Upper North Loop -->
   <node id="UPNE0" x="7" y="183"/>
   <node id="UPNE1" x="7.433373867979" y="191.82153520238"/>
   <node id="UPNE2" x="8.729321851706" y="200.55811434182"/>
   <node id="UPNE3" x="10.875363284728" y="209.12559952733"/>
   <node id="UPNE4" x="13.850830649784" y="217.44148133239"/>
   <node id="UPNE5" x="17.627068617964" y="225.42567340447"/>
   <node id="UPNE6" x="22.167710014719" y="233.00128373911"/>
   <node id="UPNE7" x="27.429026055043" y="240.09535519068"/>
   <node id="UPNE8" x="33.36034747487" y="246.63956808842"/>
   <node id="UPNE9" x="39.904552502955" y="252.57089819107"/>
   <node id="UPNE10" x="46.998616973836" y="257.83222364377"/>
   <node id="UPNE11" x="54.574221283969" y="262.3728750918"/>
   <node id="UPNE12" x="62.55840834575" y="266.14912365336"/>
   <node id="UPNE13" x="70.874286202966" y="269.12460205188"/>
   <node id="UPNE14" x="79.441768541114" y="271.2706548522"/>
   <node id="UPNE15" x="88.178345961089" y="272.56661442757"/>
   <node id="UPNE16" x="96.999880588459" y="272.99999999992"/>
   <node id="UPNE17" x="105.82141636583" y="272.56663783631"/>
   <node id="UPNE18" x="114.55799722472" y="271.27070144423"/>
   <node id="UPNE19" x="123.12548525758" y="269.12467137851"/>
   <node id="UPNE20" x="131.44137101046" y="266.14921504692"/>
   <node id="UPNE21" x="139.42556809283" y="262.37298767213"/>
   <node id="UPNE22" x="147.00118445196" y="257.83235632666"/>
   <node id="UPNE23" x="154.09526288422" y="252.57104969872"/>
   <node id="UPNE24" x="160.6394836516" y="246.63973696173"/>
   <node id="UPNE25" x="166.57082243706" y="240.09553980331"/>
   <node id="UPNE26" x="171.83215730212" y="233.00148231313"/>
   <node id="UPNE27" x="176.37281880142" y="225.42588402752"/>
   <node id="UPNE28" x="180.14907795636" y="217.44170197605"/>
   <node id="UPNE29" x="183.12456738835" y="209.12582806669"/>
   <node id="UPNE30" x="185.27063155595" y="200.55834857592"/>
   <node id="UPNE31" x="186.56660272297" y="191.82177287543"/>
   <node id="UPNE32" x="186.99999999968" y="183.00023882308"/>

   <!-- Upper North Loop -->
   <node id="UPNW0" x="7" y="-183"/>
   <node id="UPNW1" x="7.433373867979" y="-191.82153520238"/>
   <node id="UPNW2" x="8.729321851706" y="-200.55811434182"/>
   <node id="UPNW3" x="10.875363284728" y="-209.12559952733"/>
   <node id="UPNW4" x="13.850830649784" y="-217.44148133239"/>
   <node id="UPNW5" x="17.627068617964" y="-225.42567340447"/>
   <node id="UPNW6" x="22.167710014719" y="-233.00128373911"/>
   <node id="UPNW7" x="27.429026055043" y="-240.09535519068"/>
   <node id="UPNW8" x="33.36034747487" y="-246.63956808842"/>
   <node id="UPNW9" x="39.904552502955" y="-252.57089819107"/>
   <node id="UPNW10" x="46.998616973836" y="-257.83222364377"/>
   <node id="UPNW11" x="54.574221283969" y="-262.3728750918"/>
   <node id="UPNW12" x="62.55840834575" y="-266.14912365336"/>
   <node id="UPNW13" x="70.874286202966" y="-269.12460205188"/>
   <node id="UPNW14" x="79.441768541114" y="-271.2706548522"/>
   <node id="UPNW15" x="88.178345961089" y="-272.56661442757"/>
   <node id="UPNW16" x="96.999880588459" y="-272.99999999992"/>
   <node id="UPNW17" x="105.82141636583" y="-272.56663783631"/>
   <node id="UPNW18" x="114.55799722472" y="-271.27070144423"/>
   <node id="UPNW19" x="123.12548525758" y="-269.12467137851"/>
   <node id="UPNW20" x="131.44137101046" y="-266.14921504692"/>
   <node id="UPNW21" x="139.42556809283" y="-262.37298767213"/>
   <node id="UPNW22" x="147.00118445196" y="-257.83235632666"/>
   <node id="UPNW23" x="154.09526288422" y="-252.57104969872"/>
   <node id="UPNW24" x="160.6394836516" y="-246.63973696173"/>
   <node id="UPNW25" x="166.57082243706" y="-240.09553980331"/>
   <node id="UPNW26" x="171.83215730212" y="-233.00148231313"/>
   <node id="UPNW27" x="176.37281880142" y="-225.42588402752"/>
   <node id="UPNW28" x="180.14907795636" y="-217.44170197605"/>
   <node id="UPNW29" x="183.12456738835" y="-209.12582806669"/>
   <node id="UPNW30" x="185.27063155595" y="-200.55834857592"/>
   <node id="UPNW31" x="186.56660272297" y="-191.82177287543"/>
   <node id="UPNW32" x="186.99999999968" y="-183.00023882308"/>
</nodes>
