<?xml version="1.0" encoding="UTF-8"?>
<edges xmlns:xsi="http://www.w3.org/2001/XMLSchema-instance" xsi:noNamespaceSchemaLocation="http://sumo.dlr.de/xsd/edges_file.xsd">

   <!-- Output junction of the upper south loop -->
   <edge id="OUTEJUN0" to="INSE2" from="OUTEJUN0" numLanes="2" width="3.5" spreadType="center"/>
   <edge id="OUTEJUN1" to="OUTEJUN0" from="OUTEJUN1" numLanes="2" width="3.5" spreadType="center"/>

   <edge id="OUTEJUN3" to="OUTEJUN1" from="OUTEJUN3" numLanes="2" width="3.5" spreadType="center"/>
   <edge id="OUTEJUN4" to="OUTEJUN3" from="OUTEJUN4" numLanes="2" width="3.5" spreadType="center"/>
   <edge id="OUTEJUN5" to="OUTEJUN4" from="OUTEJUN5" numLanes="2" width="3.5" spreadType="center"/>
   <edge id="OUTEJUN6" to="OUTEJUN5" from="OUTEJUN6" numLanes="2" width="3.5" spreadType="center"/>
   <edge id="OUTEJUN7" to="OUTEJUN6" from="OUTEJUN7" numLanes="2" width="3.5" spreadType="center"/>
   <edge id="OUTEJUN8" to="OUTEJUN7" from="OUTEJUN8" numLanes="2" width="3.5" spreadType="center"/>
   <edge id="OUTEJUN9" to="OUTEJUN8" from="OUTEJUN9" numLanes="2" width="3.5" spreadType="center"/>
   <edge id="OUTEJUN10" to="OUTEJUN9" from="OUTEJUN10" numLanes="2" width="3.5" spreadType="center"/>
   <edge id="OUTEJUN11" to="OUTEJUN10" from="OUTEJUN11" numLanes="2" width="3.5" spreadType="center"/>
   <edge id="OUTEJUN12" to="OUTEJUN11" from="OUTEJUN12" numLanes="2" width="3.5" spreadType="center"/>
   <edge id="OUTEJUN13" to="OUTEJUN12" from="OUTEJUN13" numLanes="2" width="3.5" spreadType="center"/>
   <edge id="OUTEJUN14" to="OUTEJUN13" from="OUTEJUN14" numLanes="2" width="3.5" spreadType="center"/>
   <edge id="OUTEJUN15" to="OUTEJUN14" from="OUTEJUN15" numLanes="2" width="3.5" spreadType="center"/>
   <edge id="OUTEJUN16" to="OUTEJUN15" from="OUTEJUN16" numLanes="2" width="3.5" spreadType="center"/>
   <edge id="OUTEJUN17" to="OUTEJUN16" from="OUTEJUN17" numLanes="2" width="3.5" spreadType="center"/>
   <edge id="OUTEJUN18" to="OUTEJUN17" from="OUTEJUN18" numLanes="2" width="3.5" spreadType="center"/>
   <edge id="OUTEJUN19" to="OUTEJUN18" from="OUTEJUN19" numLanes="2" width="3.5" spreadType="center"/>
   <edge id="OUTEJUN20" to="OUTEJUN19" from="OUTEJUN20" numLanes="2" width="3.5" spreadType="center"/>
   <edge id="OUTEJUN21" to="OUTEJUN20" from="OUTEJUN21" numLanes="2" width="3.5" spreadType="center"/>
   <edge id="OUTEJUN22" to="OUTEJUN21" from="OUTEJUN22" numLanes="2" width="3.5" spreadType="center"/>
   <edge id="OUTEJUN23" to="OUTEJUN22" from="OUTEJUN23" numLanes="2" width="3.5" spreadType="center"/>
   <edge id="OUTEJUN24" to="OUTEJUN23" from="OUTEJUN24" numLanes="2" width="3.5" spreadType="center"/>
   <edge id="OUTEJUN25" to="OUTEJUN24" from="OUTEJUN25" numLanes="2" width="3.5" spreadType="center"/>
   <edge id="OUTEJUN26" to="OUTEJUN25" from="OUTEJUN26" numLanes="2" width="3.5" spreadType="center"/>
   <edge id="OUTEJUN27" to="OUTEJUN26" from="OUTEJUN27" numLanes="2" width="3.5" spreadType="center"/>
   <edge id="OUTEJUN28" to="OUTEJUN27" from="OUTEJUN28" numLanes="2" width="3.5" spreadType="center"/>
   <edge id="OUTEJUN29" to="OUTEJUN28" from="OUTEJUN29" numLanes="2" width="3.5" spreadType="center"/>
   <edge id="OUTEJUN30" to="OUTEJUN29" from="OUTEJUN30" numLanes="2" width="3.5" spreadType="center"/>
   <edge id="OUTEJUN31" to="OUTEJUN30" from="OUTEJUN31" numLanes="2" width="3.5" spreadType="center"/>
   <edge id="OUTEJUN32" to="OUTEJUN31" from="OUTEJUN32" numLanes="2" width="3.5" spreadType="center"/>
   <edge id="OUTEJUN33" to="OUTEJUN32" from="OUTEJUN33" numLanes="2" width="3.5" spreadType="center"/>
   <edge id="OUTEJUN34" to="OUTEJUN33" from="OUTEJUN34" numLanes="2" width="3.5" spreadType="center"/>
   <edge id="OUTEJUN35" to="OUTEJUN34" from="OUTEJUN35" numLanes="2" width="3.5" spreadType="center"/>
   <edge id="OUTEJUN36" to="OUTEJUN35" from="OUTEJUN36" numLanes="2" width="3.5" spreadType="center"/>
   <edge id="OUTEJUN37" to="OUTEJUN36" from="OUTEJUN37" numLanes="2" width="3.5" spreadType="center"/>
   <edge id="OUTEJUN38" to="OUTEJUN37" from="OUTEJUN38" numLanes="2" width="3.5" spreadType="center"/>
   <edge id="OUTEJUN39" to="OUTEJUN38" from="OUTEJUN39" numLanes="2" width="3.5" spreadType="center"/>
   <edge id="OUTEJUN40" to="OUTEJUN39" from="OUTEJUN40" numLanes="2" width="3.5" spreadType="center"/>
   <edge id="OUTEJUN41" to="OUTEJUN40" from="OUTEJUN41" numLanes="2" width="3.5" spreadType="center"/>
   <edge id="OUTEJUN42" to="OUTEJUN41" from="OUTEJUN42" numLanes="2" width="3.5" spreadType="center"/>
   <edge id="OUTEJUN43" to="OUTEJUN42" from="OUTEJUN43" numLanes="2" width="3.5" spreadType="center"/>
   <edge id="OUTEJUN44" to="OUTEJUN43" from="OUTEJUN44" numLanes="2" width="3.5" spreadType="center"/>
   <edge id="OUTEJUN45" to="OUTEJUN44" from="OUTEJUN45" numLanes="2" width="3.5" spreadType="center"/>
   <edge id="OUTEJUN46" to="OUTEJUN45" from="OUTEJUN46" numLanes="2" width="3.5" spreadType="center"/>
   <edge id="OUTEJUN47" to="OUTEJUN46" from="OUTEJUN47" numLanes="2" width="3.5" spreadType="center"/>
   <edge id="OUTEJUN48" to="OUTEJUN47" from="OUTEJUN48" numLanes="2" width="3.5" spreadType="center"/>
   <edge id="OUTEJUN49" to="OUTEJUN48" from="OUTEJUN49" numLanes="2" width="3.5" spreadType="center"/>
   <edge id="OUTEJUN50" to="OUTEJUN49" from="OUTEJUN50" numLanes="2" width="3.5" spreadType="center"/>
   <edge id="OUTEJUN51" to="OUTEJUN50" from="OUTEJUN51" numLanes="2" width="3.5" spreadType="center"/>
   <edge id="OUTEJUN52_height0.7_pitch-0.062" to="OUTEJUN51" from="OUTEJUN52" numLanes="2" width="3.5" spreadType="center"/>
   <edge id="OUTEJUN53_height1.7_pitch-0.141" to="OUTEJUN52" from="OUTEJUN53" numLanes="2" width="3.5" spreadType="center"/>
   <edge id="OUTEJUN54_height4.35_pitch-0.175" to="OUTEJUN53" from="OUTEJUN54" numLanes="2" width="3.5" spreadType="center"/>
   <edge id="OUTEJUN55_height5.0_pitch-0.081" to="OUTEJUN54" from="OUTEJUN55" numLanes="2" width="3.5" spreadType="center"/>
   <edge id="OUTEJUN56_height5.0" to="OUTEJUN55" from="OUTEJUN56" numLanes="2" width="3.5" spreadType="center"/>
   <edge id="OUTEJUN57_height5.0" to="OUTEJUN56" from="UPSE0" numLanes="2" width="3.5" spreadType="center"/>

   <!-- Straight road Est -->
   <edge id="INSE0" from="INSE0" to="INSE1" numLanes="3" width="3.5" spreadType="center">
     <split pos="0.01" lanes="1 2"/>
   </edge>
   <edge id="INSE1" from="INSE1" to="INSE2" numLanes="3" width="3.5" spreadType="center">
     <split pos="0.01" lanes="1 2"/>
   </edge>
   <edge id="INtoOutE" from="INSE2" to="OUTNE2" numLanes="3" width="3.5" spreadType="center"/>
   <edge id="OUTNE1" from="OUTNE2" to="OUTNE1" numLanes="3" width="3.5" spreadType="center">
     <split pos="0.01" lanes="1 2"/>
   </edge>
   <edge id="OUTNE0" from="OUTNE1" to="OUTNE0" numLanes="3" width="3.5" spreadType="center">
     <split pos="0.01" lanes="1 2"/>
   </edge>

   <!-- Input junction of the upper north loop -->
   <edge id="INEJUN0" from="OUTNE2" to="INEJUN0" numLanes="2" width="3.5" spreadType="center"/>
   <edge id="INEJUN1" from="INEJUN0" to="INEJUN1" numLanes="2" width="3.5" spreadType="center"/>

   <edge id="INEJUN3" from="INEJUN1" to="INEJUN3" numLanes="2" width="3.5" spreadType="center"/>
   <edge id="INEJUN4" from="INEJUN3" to="INEJUN4" numLanes="2" width="3.5" spreadType="center"/>
   <edge id="INEJUN5" from="INEJUN4" to="INEJUN5" numLanes="2" width="3.5" spreadType="center"/>
   <edge id="INEJUN6" from="INEJUN5" to="INEJUN6" numLanes="2" width="3.5" spreadType="center"/>
   <edge id="INEJUN7" from="INEJUN6" to="INEJUN7" numLanes="2" width="3.5" spreadType="center"/>
   <edge id="INEJUN8" from="INEJUN7" to="INEJUN8" numLanes="2" width="3.5" spreadType="center"/>
   <edge id="INEJUN9" from="INEJUN8" to="INEJUN9" numLanes="2" width="3.5" spreadType="center"/>
   <edge id="INEJUN10" from="INEJUN9" to="INEJUN10" numLanes="2" width="3.5" spreadType="center"/>
   <edge id="INEJUN11" from="INEJUN10" to="INEJUN11" numLanes="2" width="3.5" spreadType="center"/>
   <edge id="INEJUN12" from="INEJUN11" to="INEJUN12" numLanes="2" width="3.5" spreadType="center"/>
   <edge id="INEJUN13" from="INEJUN12" to="INEJUN13" numLanes="2" width="3.5" spreadType="center"/>
   <edge id="INEJUN14" from="INEJUN13" to="INEJUN14" numLanes="2" width="3.5" spreadType="center"/>
   <edge id="INEJUN15" from="INEJUN14" to="INEJUN15" numLanes="2" width="3.5" spreadType="center"/>
   <edge id="INEJUN16" from="INEJUN15" to="INEJUN16" numLanes="2" width="3.5" spreadType="center"/>
   <edge id="INEJUN17" from="INEJUN16" to="INEJUN17" numLanes="2" width="3.5" spreadType="center"/>
   <edge id="INEJUN18" from="INEJUN17" to="INEJUN18" numLanes="2" width="3.5" spreadType="center"/>
   <edge id="INEJUN19" from="INEJUN18" to="INEJUN19" numLanes="2" width="3.5" spreadType="center"/>
   <edge id="INEJUN20" from="INEJUN19" to="INEJUN20" numLanes="2" width="3.5" spreadType="center"/>
   <edge id="INEJUN21" from="INEJUN20" to="INEJUN21" numLanes="2" width="3.5" spreadType="center"/>
   <edge id="INEJUN22" from="INEJUN21" to="INEJUN22" numLanes="2" width="3.5" spreadType="center"/>
   <edge id="INEJUN23" from="INEJUN22" to="INEJUN23" numLanes="2" width="3.5" spreadType="center"/>
   <edge id="INEJUN24" from="INEJUN23" to="INEJUN24" numLanes="2" width="3.5" spreadType="center"/>
   <edge id="INEJUN25" from="INEJUN24" to="INEJUN25" numLanes="2" width="3.5" spreadType="center"/>
   <edge id="INEJUN26" from="INEJUN25" to="INEJUN26" numLanes="2" width="3.5" spreadType="center"/>
   <edge id="INEJUN27" from="INEJUN26" to="INEJUN27" numLanes="2" width="3.5" spreadType="center"/>
   <edge id="INEJUN28" from="INEJUN27" to="INEJUN28" numLanes="2" width="3.5" spreadType="center"/>
   <edge id="INEJUN29" from="INEJUN28" to="INEJUN29" numLanes="2" width="3.5" spreadType="center"/>
   <edge id="INEJUN30" from="INEJUN29" to="INEJUN30" numLanes="2" width="3.5" spreadType="center"/>
   <edge id="INEJUN31" from="INEJUN30" to="INEJUN31" numLanes="2" width="3.5" spreadType="center"/>
   <edge id="INEJUN32" from="INEJUN31" to="INEJUN32" numLanes="2" width="3.5" spreadType="center"/>
   <edge id="INEJUN33" from="INEJUN32" to="INEJUN33" numLanes="2" width="3.5" spreadType="center"/>
   <edge id="INEJUN34" from="INEJUN33" to="INEJUN34" numLanes="2" width="3.5" spreadType="center"/>
   <edge id="INEJUN35" from="INEJUN34" to="INEJUN35" numLanes="2" width="3.5" spreadType="center"/>
   <edge id="INEJUN36" from="INEJUN35" to="INEJUN36" numLanes="2" width="3.5" spreadType="center"/>
   <edge id="INEJUN37" from="INEJUN36" to="INEJUN37" numLanes="2" width="3.5" spreadType="center"/>
   <edge id="INEJUN38" from="INEJUN37" to="INEJUN38" numLanes="2" width="3.5" spreadType="center"/>
   <edge id="INEJUN39" from="INEJUN38" to="INEJUN39" numLanes="2" width="3.5" spreadType="center"/>
   <edge id="INEJUN40" from="INEJUN39" to="INEJUN40" numLanes="2" width="3.5" spreadType="center"/>
   <edge id="INEJUN41" from="INEJUN40" to="INEJUN41" numLanes="2" width="3.5" spreadType="center"/>
   <edge id="INEJUN42" from="INEJUN41" to="INEJUN42" numLanes="2" width="3.5" spreadType="center"/>
   <edge id="INEJUN43" from="INEJUN42" to="INEJUN43" numLanes="2" width="3.5" spreadType="center"/>
   <edge id="INEJUN44" from="INEJUN43" to="INEJUN44" numLanes="2" width="3.5" spreadType="center"/>
   <edge id="INEJUN45" from="INEJUN44" to="INEJUN45" numLanes="2" width="3.5" spreadType="center"/>
   <edge id="INEJUN46" from="INEJUN45" to="INEJUN46" numLanes="2" width="3.5" spreadType="center"/>
   <edge id="INEJUN47" from="INEJUN46" to="INEJUN47" numLanes="2" width="3.5" spreadType="center"/>
   <edge id="INEJUN48" from="INEJUN47" to="INEJUN48" numLanes="2" width="3.5" spreadType="center"/>
   <edge id="INEJUN49" from="INEJUN48" to="INEJUN49" numLanes="2" width="3.5" spreadType="center"/>
   <edge id="INEJUN50" from="INEJUN49" to="INEJUN50" numLanes="2" width="3.5" spreadType="center"/>
   <edge id="INEJUN51" from="INEJUN50" to="INEJUN51" numLanes="2" width="3.5" spreadType="center"/>
   <edge id="INEJUN52_pitch0.09" from="INEJUN51" to="INEJUN52" numLanes="2" width="3.5" spreadType="center"/>
   <edge id="INEJUN53_height0.95_pitch0.156" from="INEJUN52" to="INEJUN53" numLanes="2" width="3.5" spreadType="center"/>
   <edge id="INEJUN54_height2.1_pitch0.175" from="INEJUN53" to="INEJUN54" numLanes="2" width="3.5" spreadType="center"/>
   <edge id="INEJUN55_height4.75_pitch0.031" from="INEJUN54" to="INEJUN55" numLanes="2" width="3.5" spreadType="center"/>
   <edge id="INEJUN56_height5.0" from="INEJUN55" to="INEJUN56" numLanes="2" width="3.5" spreadType="center"/>
   <edge id="INEJUN57_height5.0" from="INEJUN56" to="UPNE0" numLanes="2" width="3.5" spreadType="center"/>

   <!-- Upper South Loop -->
   <edge id="UPSE0to1_height5.0" to="UPSE0" from="UPSE1" numLanes="2" width="3.5" spreadType="center"/>
   <edge id="UPSE1to2_height5.0_roll-0.01" to="UPSE1" from="UPSE2" numLanes="2" width="3.5" spreadType="center"/>
   <edge id="UPSE2to3_height5.0_roll-0.02" to="UPSE2" from="UPSE3" numLanes="2" width="3.5" spreadType="center"/>
   <edge id="UPSE3to4_height5.0_roll-0.03" to="UPSE3" from="UPSE4" numLanes="2" width="3.5" spreadType="center"/>
   <edge id="UPSE4to5_height5.0_roll-0.04" to="UPSE4" from="UPSE5" numLanes="2" width="3.5" spreadType="center"/>
   <edge id="UPSE5to6_height5.0_roll-0.05" to="UPSE5" from="UPSE6" numLanes="2" width="3.5" spreadType="center"/>
   <edge id="UPSE6to7_height5.0_roll-0.06" to="UPSE6" from="UPSE7" numLanes="2" width="3.5" spreadType="center"/>
   <edge id="UPSE7to8_height5.0_roll-0.07" to="UPSE7" from="UPSE8" numLanes="2" width="3.5" spreadType="center"/>
   <edge id="UPSE8to9_height5.0_roll-0.08" to="UPSE8" from="UPSE9" numLanes="2" width="3.5" spreadType="center"/>
   <edge id="UPSE9to10_height5.0_roll-0.09" to="UPSE9" from="UPSE10" numLanes="2" width="3.5" spreadType="center"/>
   <edge id="UPSE10to11_height5.0_roll-0.1" to="UPSE10" from="UPSE11" numLanes="2" width="3.5" spreadType="center"/>
   <edge id="UPSE11to12_height5.0_roll-0.11" to="UPSE11" from="UPSE12" numLanes="2" width="3.5" spreadType="center"/>
   <edge id="UPSE12to13_height5.0_roll-0.12" to="UPSE12" from="UPSE13" numLanes="2" width="3.5" spreadType="center"/>
   <edge id="UPSE13to14_height5.0_roll-0.13" to="UPSE13" from="UPSE14" numLanes="2" width="3.5" spreadType="center"/>
   <edge id="UPSE14to15_height5.0_roll-0.14" to="UPSE14" from="UPSE15" numLanes="2" width="3.5" spreadType="center"/>
   <edge id="UPSE15to16_height5.0_roll-0.15" to="UPSE15" from="UPSE16" numLanes="2" width="3.5" spreadType="center"/>
   <edge id="UPSE16to17_height5.0_roll-0.15" to="UPSE16" from="UPSE17" numLanes="2" width="3.5" spreadType="center"/>
   <edge id="UPSE17to18_height5.0_roll-0.14" to="UPSE17" from="UPSE18" numLanes="2" width="3.5" spreadType="center"/>
   <edge id="UPSE18to19_height5.0_roll-0.13" to="UPSE18" from="UPSE19" numLanes="2" width="3.5" spreadType="center"/>
   <edge id="UPSE19to20_height5.0_roll-0.12" to="UPSE19" from="UPSE20" numLanes="2" width="3.5" spreadType="center"/>
   <edge id="UPSE20to21_height5.0_roll-0.11" to="UPSE20" from="UPSE21" numLanes="2" width="3.5" spreadType="center"/>
   <edge id="UPSE21to22_height5.0_roll-0.10" to="UPSE21" from="UPSE22" numLanes="2" width="3.5" spreadType="center"/>
   <edge id="UPSE22to23_height5.0_roll-0.09" to="UPSE22" from="UPSE23" numLanes="2" width="3.5" spreadType="center"/>
   <edge id="UPSE23to24_height5.0_roll-0.08" to="UPSE23" from="UPSE24" numLanes="2" width="3.5" spreadType="center"/>
   <edge id="UPSE24to25_height5.0_roll-0.07" to="UPSE24" from="UPSE25" numLanes="2" width="3.5" spreadType="center"/>
   <edge id="UPSE25to26_height5.0_roll-0.06" to="UPSE25" from="UPSE26" numLanes="2" width="3.5" spreadType="center"/>
   <edge id="UPSE26to27_height5.0_roll-0.05" to="UPSE26" from="UPSE27" numLanes="2" width="3.5" spreadType="center"/>
   <edge id="UPSE27to28_height5.0_roll-0.04" to="UPSE27" from="UPSE28" numLanes="2" width="3.5" spreadType="center"/>
   <edge id="UPSE28to29_height5.0_roll-0.03" to="UPSE28" from="UPSE29" numLanes="2" width="3.5" spreadType="center"/>
   <edge id="UPSE29to30_height5.0_roll-0.02" to="UPSE29" from="UPSE30" numLanes="2" width="3.5" spreadType="center"/>
   <edge id="UPSE30to31_height5.0_roll-0.01" to="UPSE30" from="UPSE31" numLanes="2" width="3.5" spreadType="center"/>
   <edge id="UPSE31to32_height5.0" to="UPSE31" from="UPSE32" numLanes="2" width="3.5" spreadType="center"/>
   <edge id="UPSOut_height5.0" to="UPSE32" from="UPSW32" numLanes="2" width="3.5" spreadType="center"/>
   <edge id="UPSCent_height5.0" to="UPSW0" from="UPSE0" numLanes="2" width="3.5" spreadType="center"/>
   <edge id="UPSW0to1_height5.0" from="UPSW0" to="UPSW1" numLanes="2" width="3.5" spreadType="center"/>
   <edge id="UPSW1to2_height5.0_roll-0.01" from="UPSW1" to="UPSW2" numLanes="2" width="3.5" spreadType="center"/>
   <edge id="UPSW2to3_height5.0_roll-0.02" from="UPSW2" to="UPSW3" numLanes="2" width="3.5" spreadType="center"/>
   <edge id="UPSW3to4_height5.0_roll-0.03" from="UPSW3" to="UPSW4" numLanes="2" width="3.5" spreadType="center"/>
   <edge id="UPSW4to5_height5.0_roll-0.04" from="UPSW4" to="UPSW5" numLanes="2" width="3.5" spreadType="center"/>
   <edge id="UPSW5to6_height5.0_roll-0.05" from="UPSW5" to="UPSW6" numLanes="2" width="3.5" spreadType="center"/>
   <edge id="UPSW6to7_height5.0_roll-0.06" from="UPSW6" to="UPSW7" numLanes="2" width="3.5" spreadType="center"/>
   <edge id="UPSW7to8_height5.0_roll-0.07" from="UPSW7" to="UPSW8" numLanes="2" width="3.5" spreadType="center"/>
   <edge id="UPSW8to9_height5.0_roll-0.08" from="UPSW8" to="UPSW9" numLanes="2" width="3.5" spreadType="center"/>
   <edge id="UPSW9to10_height5.0_roll-0.09" from="UPSW9" to="UPSW10" numLanes="2" width="3.5" spreadType="center"/>
   <edge id="UPSW10to11_height5.0_roll-0.1" from="UPSW10" to="UPSW11" numLanes="2" width="3.5" spreadType="center"/>
   <edge id="UPSW11to12_height5.0_roll-0.11" from="UPSW11" to="UPSW12" numLanes="2" width="3.5" spreadType="center"/>
   <edge id="UPSW12to13_height5.0_roll-0.12" from="UPSW12" to="UPSW13" numLanes="2" width="3.5" spreadType="center"/>
   <edge id="UPSW13to14_height5.0_roll-0.13" from="UPSW13" to="UPSW14" numLanes="2" width="3.5" spreadType="center"/>
   <edge id="UPSW14to15_height5.0_roll-0.14" from="UPSW14" to="UPSW15" numLanes="2" width="3.5" spreadType="center"/>
   <edge id="UPSW15to16_height5.0_roll-0.15" from="UPSW15" to="UPSW16" numLanes="2" width="3.5" spreadType="center"/>
   <edge id="UPSW16to17_height5.0_roll-0.15" from="UPSW16" to="UPSW17" numLanes="2" width="3.5" spreadType="center"/>
   <edge id="UPSW17to18_height5.0_roll-0.14" from="UPSW17" to="UPSW18" numLanes="2" width="3.5" spreadType="center"/>
   <edge id="UPSW18to19_height5.0_roll-0.13" from="UPSW18" to="UPSW19" numLanes="2" width="3.5" spreadType="center"/>
   <edge id="UPSW19to20_height5.0_roll-0.12" from="UPSW19" to="UPSW20" numLanes="2" width="3.5" spreadType="center"/>
   <edge id="UPSW20to21_height5.0_roll-0.11" from="UPSW20" to="UPSW21" numLanes="2" width="3.5" spreadType="center"/>
   <edge id="UPSW21to22_height5.0_roll-0.10" from="UPSW21" to="UPSW22" numLanes="2" width="3.5" spreadType="center"/>
   <edge id="UPSW22to23_height5.0_roll-0.09" from="UPSW22" to="UPSW23" numLanes="2" width="3.5" spreadType="center"/>
   <edge id="UPSW23to24_height5.0_roll-0.08" from="UPSW23" to="UPSW24" numLanes="2" width="3.5" spreadType="center"/>
   <edge id="UPSW24to25_height5.0_roll-0.07" from="UPSW24" to="UPSW25" numLanes="2" width="3.5" spreadType="center"/>
   <edge id="UPSW25to26_height5.0_roll-0.06" from="UPSW25" to="UPSW26" numLanes="2" width="3.5" spreadType="center"/>
   <edge id="UPSW26to27_height5.0_roll-0.05" from="UPSW26" to="UPSW27" numLanes="2" width="3.5" spreadType="center"/>
   <edge id="UPSW27to28_height5.0_roll-0.04" from="UPSW27" to="UPSW28" numLanes="2" width="3.5" spreadType="center"/>
   <edge id="UPSW28to29_height5.0_roll-0.03" from="UPSW28" to="UPSW29" numLanes="2" width="3.5" spreadType="center"/>
   <edge id="UPSW29to30_height5.0_roll-0.02" from="UPSW29" to="UPSW30" numLanes="2" width="3.5" spreadType="center"/>
   <edge id="UPSW30to31_height5.0_roll-0.01" from="UPSW30" to="UPSW31" numLanes="2" width="3.5" spreadType="center"/>
   <edge id="UPSW31to32_height5.0" from="UPSW31" to="UPSW32" numLanes="2" width="3.5" spreadType="center"/>

   <!-- Input junction of the upper south loop -->
   <edge id="INWJUN0" from="OUTSW2" to="INWJUN0" numLanes="2" width="3.5" spreadType="center"/>
   <edge id="INWJUN1" from="INWJUN0" to="INWJUN1" numLanes="2" width="3.5" spreadType="center"/>

   <edge id="INWJUN3" from="INWJUN1" to="INWJUN3" numLanes="2" width="3.5" spreadType="center"/>
   <edge id="INWJUN4" from="INWJUN3" to="INWJUN4" numLanes="2" width="3.5" spreadType="center"/>
   <edge id="INWJUN5" from="INWJUN4" to="INWJUN5" numLanes="2" width="3.5" spreadType="center"/>
   <edge id="INWJUN6" from="INWJUN5" to="INWJUN6" numLanes="2" width="3.5" spreadType="center"/>
   <edge id="INWJUN7" from="INWJUN6" to="INWJUN7" numLanes="2" width="3.5" spreadType="center"/>
   <edge id="INWJUN8" from="INWJUN7" to="INWJUN8" numLanes="2" width="3.5" spreadType="center"/>
   <edge id="INWJUN9" from="INWJUN8" to="INWJUN9" numLanes="2" width="3.5" spreadType="center"/>
   <edge id="INWJUN10" from="INWJUN9" to="INWJUN10" numLanes="2" width="3.5" spreadType="center"/>
   <edge id="INWJUN11" from="INWJUN10" to="INWJUN11" numLanes="2" width="3.5" spreadType="center"/>
   <edge id="INWJUN12" from="INWJUN11" to="INWJUN12" numLanes="2" width="3.5" spreadType="center"/>
   <edge id="INWJUN13" from="INWJUN12" to="INWJUN13" numLanes="2" width="3.5" spreadType="center"/>
   <edge id="INWJUN14" from="INWJUN13" to="INWJUN14" numLanes="2" width="3.5" spreadType="center"/>
   <edge id="INWJUN15" from="INWJUN14" to="INWJUN15" numLanes="2" width="3.5" spreadType="center"/>
   <edge id="INWJUN16" from="INWJUN15" to="INWJUN16" numLanes="2" width="3.5" spreadType="center"/>
   <edge id="INWJUN17" from="INWJUN16" to="INWJUN17" numLanes="2" width="3.5" spreadType="center"/>
   <edge id="INWJUN18" from="INWJUN17" to="INWJUN18" numLanes="2" width="3.5" spreadType="center"/>
   <edge id="INWJUN19" from="INWJUN18" to="INWJUN19" numLanes="2" width="3.5" spreadType="center"/>
   <edge id="INWJUN20" from="INWJUN19" to="INWJUN20" numLanes="2" width="3.5" spreadType="center"/>
   <edge id="INWJUN21" from="INWJUN20" to="INWJUN21" numLanes="2" width="3.5" spreadType="center"/>
   <edge id="INWJUN22" from="INWJUN21" to="INWJUN22" numLanes="2" width="3.5" spreadType="center"/>
   <edge id="INWJUN23" from="INWJUN22" to="INWJUN23" numLanes="2" width="3.5" spreadType="center"/>
   <edge id="INWJUN24" from="INWJUN23" to="INWJUN24" numLanes="2" width="3.5" spreadType="center"/>
   <edge id="INWJUN25" from="INWJUN24" to="INWJUN25" numLanes="2" width="3.5" spreadType="center"/>
   <edge id="INWJUN26" from="INWJUN25" to="INWJUN26" numLanes="2" width="3.5" spreadType="center"/>
   <edge id="INWJUN27" from="INWJUN26" to="INWJUN27" numLanes="2" width="3.5" spreadType="center"/>
   <edge id="INWJUN28" from="INWJUN27" to="INWJUN28" numLanes="2" width="3.5" spreadType="center"/>
   <edge id="INWJUN29" from="INWJUN28" to="INWJUN29" numLanes="2" width="3.5" spreadType="center"/>
   <edge id="INWJUN30" from="INWJUN29" to="INWJUN30" numLanes="2" width="3.5" spreadType="center"/>
   <edge id="INWJUN31" from="INWJUN30" to="INWJUN31" numLanes="2" width="3.5" spreadType="center"/>
   <edge id="INWJUN32" from="INWJUN31" to="INWJUN32" numLanes="2" width="3.5" spreadType="center"/>
   <edge id="INWJUN33" from="INWJUN32" to="INWJUN33" numLanes="2" width="3.5" spreadType="center"/>
   <edge id="INWJUN34" from="INWJUN33" to="INWJUN34" numLanes="2" width="3.5" spreadType="center"/>
   <edge id="INWJUN35" from="INWJUN34" to="INWJUN35" numLanes="2" width="3.5" spreadType="center"/>
   <edge id="INWJUN36" from="INWJUN35" to="INWJUN36" numLanes="2" width="3.5" spreadType="center"/>
   <edge id="INWJUN37" from="INWJUN36" to="INWJUN37" numLanes="2" width="3.5" spreadType="center"/>
   <edge id="INWJUN38" from="INWJUN37" to="INWJUN38" numLanes="2" width="3.5" spreadType="center"/>
   <edge id="INWJUN39" from="INWJUN38" to="INWJUN39" numLanes="2" width="3.5" spreadType="center"/>
   <edge id="INWJUN40" from="INWJUN39" to="INWJUN40" numLanes="2" width="3.5" spreadType="center"/>
   <edge id="INWJUN41" from="INWJUN40" to="INWJUN41" numLanes="2" width="3.5" spreadType="center"/>
   <edge id="INWJUN42" from="INWJUN41" to="INWJUN42" numLanes="2" width="3.5" spreadType="center"/>
   <edge id="INWJUN43" from="INWJUN42" to="INWJUN43" numLanes="2" width="3.5" spreadType="center"/>
   <edge id="INWJUN44" from="INWJUN43" to="INWJUN44" numLanes="2" width="3.5" spreadType="center"/>
   <edge id="INWJUN45" from="INWJUN44" to="INWJUN45" numLanes="2" width="3.5" spreadType="center"/>
   <edge id="INWJUN46" from="INWJUN45" to="INWJUN46" numLanes="2" width="3.5" spreadType="center"/>
   <edge id="INWJUN47" from="INWJUN46" to="INWJUN47" numLanes="2" width="3.5" spreadType="center"/>
   <edge id="INWJUN48" from="INWJUN47" to="INWJUN48" numLanes="2" width="3.5" spreadType="center"/>
   <edge id="INWJUN49" from="INWJUN48" to="INWJUN49" numLanes="2" width="3.5" spreadType="center"/>
   <edge id="INWJUN50" from="INWJUN49" to="INWJUN50" numLanes="2" width="3.5" spreadType="center"/>
   <edge id="INWJUN51" from="INWJUN50" to="INWJUN51" numLanes="2" width="3.5" spreadType="center"/>
   <edge id="INWJUN52_pitch0.09" from="INWJUN51" to="INWJUN52" numLanes="2" width="3.5" spreadType="center"/>
   <edge id="INWJUN53_height0.95_pitch0.156" from="INWJUN52" to="INWJUN53" numLanes="2" width="3.5" spreadType="center"/>
   <edge id="INWJUN54_height2.1_pitch0.175" from="INWJUN53" to="INWJUN54" numLanes="2" width="3.5" spreadType="center"/>
   <edge id="INWJUN55_height4.75_pitch0.031" from="INWJUN54" to="INWJUN55" numLanes="2" width="3.5" spreadType="center"/>
   <edge id="INWJUN56_height5.0" from="INWJUN55" to="INWJUN56" numLanes="2" width="3.5" spreadType="center"/>
   <edge id="INWJUN57_height5.0" from="INWJUN56" to="UPSW0" numLanes="2" width="3.5" spreadType="center"/>

   <!-- Straight road West -->
   <edge id="INNW0" from="INNW0" to="INNW1" numLanes="3" width="3.5" spreadType="center">
     <split pos="0.01" lanes="1 2"/>
   </edge>
   <edge id="INNW1" from="INNW1" to="INNW2" numLanes="3" width="3.5" spreadType="center">
     <split pos="0.01" lanes="1 2"/>
   </edge>
   <edge id="INtoOutW" from="INNW2" to="OUTSW2" numLanes="3" width="3.5" spreadType="center"/>
   <edge id="OUTSW1" from="OUTSW2" to="OUTSW1" numLanes="3" width="3.5" spreadType="center">
     <split pos="0.01" lanes="1 2"/>
   </edge>
   <edge id="OUTSW0" from="OUTSW1" to="OUTSW0" numLanes="3" width="3.5" spreadType="center">
     <split pos="0.01" lanes="1 2"/>
   </edge>

   <!-- Output junction of the upper north loop -->
   <edge id="OUTWJUN0" to="INNW2" from="OUTWJUN0" numLanes="2" width="3.5" spreadType="center"/>
   <edge id="OUTWJUN1" to="OUTWJUN0" from="OUTWJUN1" numLanes="2" width="3.5" spreadType="center"/>

   <edge id="OUTWJUN3" to="OUTWJUN1" from="OUTWJUN3" numLanes="2" width="3.5" spreadType="center"/>
   <edge id="OUTWJUN4" to="OUTWJUN3" from="OUTWJUN4" numLanes="2" width="3.5" spreadType="center"/>
   <edge id="OUTWJUN5" to="OUTWJUN4" from="OUTWJUN5" numLanes="2" width="3.5" spreadType="center"/>
   <edge id="OUTWJUN6" to="OUTWJUN5" from="OUTWJUN6" numLanes="2" width="3.5" spreadType="center"/>
   <edge id="OUTWJUN7" to="OUTWJUN6" from="OUTWJUN7" numLanes="2" width="3.5" spreadType="center"/>
   <edge id="OUTWJUN8" to="OUTWJUN7" from="OUTWJUN8" numLanes="2" width="3.5" spreadType="center"/>
   <edge id="OUTWJUN9" to="OUTWJUN8" from="OUTWJUN9" numLanes="2" width="3.5" spreadType="center"/>
   <edge id="OUTWJUN10" to="OUTWJUN9" from="OUTWJUN10" numLanes="2" width="3.5" spreadType="center"/>
   <edge id="OUTWJUN11" to="OUTWJUN10" from="OUTWJUN11" numLanes="2" width="3.5" spreadType="center"/>
   <edge id="OUTWJUN12" to="OUTWJUN11" from="OUTWJUN12" numLanes="2" width="3.5" spreadType="center"/>
   <edge id="OUTWJUN13" to="OUTWJUN12" from="OUTWJUN13" numLanes="2" width="3.5" spreadType="center"/>
   <edge id="OUTWJUN14" to="OUTWJUN13" from="OUTWJUN14" numLanes="2" width="3.5" spreadType="center"/>
   <edge id="OUTWJUN15" to="OUTWJUN14" from="OUTWJUN15" numLanes="2" width="3.5" spreadType="center"/>
   <edge id="OUTWJUN16" to="OUTWJUN15" from="OUTWJUN16" numLanes="2" width="3.5" spreadType="center"/>
   <edge id="OUTWJUN17" to="OUTWJUN16" from="OUTWJUN17" numLanes="2" width="3.5" spreadType="center"/>
   <edge id="OUTWJUN18" to="OUTWJUN17" from="OUTWJUN18" numLanes="2" width="3.5" spreadType="center"/>
   <edge id="OUTWJUN19" to="OUTWJUN18" from="OUTWJUN19" numLanes="2" width="3.5" spreadType="center"/>
   <edge id="OUTWJUN20" to="OUTWJUN19" from="OUTWJUN20" numLanes="2" width="3.5" spreadType="center"/>
   <edge id="OUTWJUN21" to="OUTWJUN20" from="OUTWJUN21" numLanes="2" width="3.5" spreadType="center"/>
   <edge id="OUTWJUN22" to="OUTWJUN21" from="OUTWJUN22" numLanes="2" width="3.5" spreadType="center"/>
   <edge id="OUTWJUN23" to="OUTWJUN22" from="OUTWJUN23" numLanes="2" width="3.5" spreadType="center"/>
   <edge id="OUTWJUN24" to="OUTWJUN23" from="OUTWJUN24" numLanes="2" width="3.5" spreadType="center"/>
   <edge id="OUTWJUN25" to="OUTWJUN24" from="OUTWJUN25" numLanes="2" width="3.5" spreadType="center"/>
   <edge id="OUTWJUN26" to="OUTWJUN25" from="OUTWJUN26" numLanes="2" width="3.5" spreadType="center"/>
   <edge id="OUTWJUN27" to="OUTWJUN26" from="OUTWJUN27" numLanes="2" width="3.5" spreadType="center"/>
   <edge id="OUTWJUN28" to="OUTWJUN27" from="OUTWJUN28" numLanes="2" width="3.5" spreadType="center"/>
   <edge id="OUTWJUN29" to="OUTWJUN28" from="OUTWJUN29" numLanes="2" width="3.5" spreadType="center"/>
   <edge id="OUTWJUN30" to="OUTWJUN29" from="OUTWJUN30" numLanes="2" width="3.5" spreadType="center"/>