<?xml version="1.0" encoding="UTF-8"?>

<!-- generated on 11/10/21 07:23:38 by SUMO duarouter Version 0.30.0
<?xml version="1.0" encoding="UTF-8"?>

<configuration xmlns:xsi="http://www.w3.org/2001/XMLSchema-instance" xsi:noNamespaceSchemaLocation="http://sumo.dlr.de/xsd/duarouterConfiguration.xsd">

    <input>
        <net-file value="projects/vehicles/worlds/highway_net/sumo.net.xml"/>
        <flow-files value="projects/vehicles/worlds/highway_net/sumo.flow.xml"/>
    </input>

    <output>
        <output-file value="projects/vehicles/worlds/highway_net/sumo.rou.xml"/>
    </output>

</configuration>
-->

<routes xmlns:xsi="http://www.w3.org/2001/XMLSchema-instance" xsi:noNamespaceSchemaLocation="http://sumo.dlr.de/xsd/routes_file.xsd">
    <vType id="vehicle" length="6.00" minGap="2.50" maxSpeed="130.00" guiShape="passenger">
        <carFollowing-Krauss accel="4" decel="15" sigma="0.5"/>
    </vType>
    <vehicle id="0.0" type="vehicle" depart="0.00" departLane="random" departSpeed="random">
        <route edges="INSE0.0 INSE1 INSE1.0 INtoOutE INEJUN0 INEJUN1 INEJUN3 INEJUN4 INEJUN5 INEJUN6 INEJUN7 INEJUN8 INEJUN9 INEJUN10 INEJUN11 INEJUN12 INEJUN13 INEJUN14 INEJUN15 INEJUN16 INEJUN17 INEJUN18 INEJUN19 INEJUN20 INEJUN21 INEJUN22 INEJUN23 INEJUN24 INEJUN25 INEJUN26 INEJUN27 INEJUN28 INEJUN29 INEJUN30 INEJUN31 INEJUN32 INEJUN33 INEJUN34 INEJUN35 INEJUN36 INEJUN37 INEJUN38 INEJUN39 INEJUN40 INEJUN41 INEJUN42 INEJUN43 INEJUN44 INEJUN45 INEJUN46 INEJUN47 INEJUN48 INEJUN49 INEJUN50 INEJUN51 INEJUN52_pitch0.09 INEJUN53_height0.95_pitch0.156 INEJUN54_height2.1_pitch0.175 INEJUN55_height4.75_pitch0.031 INEJUN56_height5.0 INEJUN57_height5.0 UPNE0to1_height5.0 UPNE1to2_height5.0_roll-0.01 UPNE2to3_height5.0_roll-0.02 UPNE3to4_height5.0_roll-0.03 UPNE4to5_height5.0_roll-0.04 UPNE5to6_height5.0_roll-0.05 UPNE6to7_height5.0_roll-0.06 UPNE7to8_height5.0_roll-0.07 UPNE8to9_height5.0_roll-0.08 UPNE9to10_height5.0_roll-0.09 UPNE10to11_height5.0_roll-0.10 UPNE11to12_height5.0_roll-0.11 UPNE12to13_height5.0_roll-0.12 UPNE13to14_height5.0_roll-0.13 UPNE14to15_height5.0_roll-0.14 UPNE15to16_height5.0_roll-0.15 UPNE16to17_height5.0_roll-0.15 UPNE17to18_height5.0_roll-0.14 UPNE18to19_height5.0_roll-0.13 UPNE19to20_height5.0_roll-0.12 UPNE20to21_height5.0_roll-0.11 UPNE21to22_height5.0_roll-0.10 UPNE22to23_height5.0_roll-0.09 UPNE23to24_height5.0_roll-0.08 UPNE24to25_height5.0_roll-0.07 UPNE25to26_height5.0_roll-0.06 UPNE26to27_height5.0_roll-0.05 UPNE27to28_height5.0_roll-0.04 UPNE28to29_height5.0_roll-0.03 UPNE29to30_height5.0_roll-0.02 UPNE30to31_height5.0_roll-0.01 UPNE31to32_height5.0 UPNOut_height5.0 UPNW31to32_height5.0 UPNW30to31_height5.0_roll-0.01 UPNW29to30_height5.0_roll-0.02 UPNW28to29_height5.0_roll-0.03 UPNW27to28_height5.0_roll-0.04 UPNW26to27_height5.0_roll-0.05 UPNW25to26_height5.0_roll-0.06 UPNW24to25_height5.0_roll-0.07 UPNW23to24_height5.0_roll-0.08 UPNW22to23_height5.0_roll-0.09 UPNW21to22_height5.0_roll-0.10 UPNW20to21_height5.0_roll-0.11 UPNW19to20_height5.0_roll-0.12 UPNW18to19_height5.0_roll-0.13 UPNW17to18_height5.0_roll-0.14 UPNW16to17_height5.0_roll-0.15 UPNW15to16_height5.0_roll-0.15 UPNW14to15_height5.0_roll-0.14 UPNW13to14_height5.0_roll-0.13 UPNW12to13_height5.0_roll-0.12 UPNW11to12_height5.0_roll-0.11 UPNW10to11_height5.0_roll-0.10 UPNW9to10_height5.0_roll-0.09 UPNW8to9_height5.0_roll-0.08 UPNW7to8_height5.0_roll-0.07 UPNW6to7_height5.0_roll-0.06 UPNW5to6_height5.0_roll-0.05 UPNW4to5_height5.0_roll-0.04 UPNW3to4_height5.0_roll-0.03 UPNW2to3_height5.0_roll-0.02 UPNW1to2_height5.0_roll-0.01 UPNW0to1_height5.0 OUTWJUN57_height5.0 OUTWJUN56_height5.0 OUTWJUN55_height5.0_pitch-0.081 OUTWJUN54_height4.35_pitch-0.175 OUTWJUN53_height1.7_pitch-0.141 OUTWJUN52_height0.7_pitch-0.062 OUTWJUN51 OUTWJUN50 OUTWJUN49 OUTWJUN48 OUTWJUN47 OUTWJUN46 OUTWJUN45 OUTWJUN44 OUTWJUN43 OUTWJUN42 OUTWJUN41 OUTWJUN40 OUTWJUN39 OUTWJUN38 OUTWJUN37 OUTWJUN36 OUTWJUN35 OUTWJUN34 OUTWJUN33 OUTWJUN32 OUTWJUN31 OUTWJUN30 OUTWJUN29 OUTWJUN28 OUTWJUN27 OUTWJUN26 OUTWJUN25 OUTWJUN24 OUTWJUN23 OUTWJUN22 OUTWJUN21 OUTWJUN20 OUTWJUN19 OUTWJUN18 OUTWJUN17 OUTWJUN16 OUTWJUN15 OUTWJUN14 OUTWJUN13 OUTWJUN12 OUTWJUN11 OUTWJUN10 OUTWJUN9 OUTWJUN8 OUTWJUN7 OUTWJUN6 OUTWJUN5 OUTWJUN4 OUTWJUN3 OUTWJUN1 OUTWJUN0 INtoOutW OUTSW1 OUTSW1.0 OUTSW0 OUTSW0.0"/>
    </vehicle>
    <vehicle id="1.0" type="vehicle" depart="0.00" departLane="random" departSpeed="random">
        <route edges="INNW0.0 INNW1 INNW1.0 INtoOutW INWJUN0 INWJUN1 INWJUN3 INWJUN4 INWJUN5 INWJUN6 INWJUN7 INWJUN8 INWJUN9 INWJUN10 INWJUN11 INWJUN12 INWJUN13 INWJUN14 INWJUN15 INWJUN16 INWJUN17 INWJUN18 INWJUN19 INWJUN20 INWJUN21 INWJUN22 INWJUN23 INWJUN24 INWJUN25 INWJUN26 INWJUN27 INWJUN28 INWJUN29 INWJUN30 INWJUN31 INWJUN32 INWJUN33 INWJUN34 INWJUN35 INWJUN36 INWJUN37 INWJUN38 INWJUN39 INWJUN40 INWJUN41 INWJUN42 INWJUN43 INWJUN44 INWJUN45 INWJUN46 INWJUN47 INWJUN48 INWJUN49 INWJUN50 INWJUN51 INWJUN52_pitch0.09 INWJUN53_height0.95_pitch0.156 INWJUN54_height2.1_pitch0.175 INWJUN55_height4.75_pitch0.031 INWJUN56_height5.0 INWJUN57_height5.0 UPSW0to1_height5.0 UPSW1to2_height5.0_roll-0.01 UPSW2to3_height5.0_roll-0.02 UPSW3to4_height5.0_roll-0.03 UPSW4to5_height5.0_roll-0.04 UPSW5to6_height5.0_roll-0.05 UPSW6to7_height5.0_roll-0.06 UPSW7to8_height5.0_roll-0.07 UPSW8to9_height5.0_roll-0.08 UPSW9to10_height5.0_roll-0.09 UPSW10to11_height5.0_roll-0.1 UPSW11to12_height5.0_roll-0.11 UPSW12to13_height5.0_roll-0.12 UPSW13to14_height5.0_roll-0.13 UPSW14to15_height5.0_roll-0.14 UPSW15to16_height5.0_roll-0.15 UPSW16to17_height5.0_roll-0.15 UPSW17to18_height5.0_roll-0.14 UPSW18to19_height5.0_roll-0.13 UPSW19to20_height5.0_roll-0.12 UPSW20to21_height5.0_roll-0.11 UPSW21to22_height5.0_roll-0.10 UPSW22to23_height5.0_roll-0.09 UPSW23to24_height5.0_roll-0.08 UPSW24to25_height5.0_roll-0.07 UPSW25to26_height5.0_roll-0.06 UPSW26to27_height5.0_roll-0.05 UPSW27to28_height5.0_roll-0.04 UPSW28to29_height5.0_roll-0.03 UPSW29to30_height5.0_roll-0.02 UPSW30to31_height5.0_roll-0.01 UPSW31to32_height5.0 UPSOut_height5.0 UPSE31to32_height5.0 UPSE30to31_height5.0_roll-0.01 UPSE29to30_height5.0_roll-0.02 UPSE28to29_height5.0_roll-0.03 UPSE27to28_height5.0_roll-0.04 UPSE26to27_height5.0_roll-0.05 UPSE25to26_height5.0_roll-0.06 UPSE24to25_height5.0_roll-0.07 UPSE23to24_height5.0_roll-0.08 UPSE22to23_height5.0_roll-0.09 UPSE21to22_height5.0_roll-0.10 UPSE20to21_height5.0_roll-0.11 UPSE19to20_height5.0_roll-0.12 UPSE18to19_height5.0_roll-0.13 UPSE17to18_height5.0_roll-0.14 UPSE16to17_height5.0_roll-0.15 UPSE15to16_height5.0_roll-0.15 UPSE14to15_height5.0_roll-0.14 UPSE13to14_height5.0_roll-0.13 UPSE12to13_height5.0_roll-0.12 UPSE11to12_height5.0_roll-0.11 UPSE10to11_height5.0_roll-0.1 UPSE9to10_height5.0_roll-0.09 UPSE8to9_height5.0_roll-0.08 UPSE7to8_height5.0_roll-0.07 UPSE6to7_height5.0_roll-0.06 UPSE5to6_height5.0_roll-0.05 UPSE4to5_height5.0_roll-0.04 UPSE3to4_height5.0_roll-0.03 UPSE2to3_height5.0_roll-0.02 UPSE1to2_height5.0_roll-0.01 UPSE0to1_height5.0 OUTEJUN57_height5.0 OUTEJUN56_height5.0 OUTEJUN55_height5.0_pitch-0.081 OUTEJUN54_height4.35_pitch-0.175 OUTEJUN53_height1.7_pitch-0.141 OUTEJUN52_height0.7_pitch-0.062 OUTEJUN51 OUTEJUN50 OUTEJUN49 OUTEJUN48 OUTEJUN47 OUTEJUN46 OUTEJUN45 OUTEJUN44 OUTEJUN43 OUTEJUN42 OUTEJUN41 OUTEJUN40 OUTEJUN39 OUTEJUN38 OUTEJUN37 OUTEJUN36 OUTEJUN35 OUTEJUN34 OUTEJUN33 OUTEJUN32 OUTEJUN31 OUTEJUN30 OUTEJUN29 OUTEJUN28 OUTEJUN27 OUTEJUN26 OUTEJUN25 OUTEJUN24 OUTEJUN23 OUTEJUN22 OUTEJUN21 OUTEJUN20 OUTEJUN19 OUTEJUN18 OUTEJUN17 OUTEJUN16 OUTEJUN15 OUTEJUN14 OUTEJUN13 OUTEJUN12 OUTEJUN11 OUTEJUN10 OUTEJUN9 OUTEJUN8 OUTEJUN7 OUTEJUN6 OUTEJUN5 OUTEJUN4 OUTEJUN3 OUTEJUN1 OUTEJUN0 INtoOutE OUTNE1 OUTNE1.0 OUTNE0 OUTNE0.0"/>
    </vehicle>
    <vehicle id="0.1" type="vehicle" depart="18.00" departLane="random" departSpeed="random">
        <route edges="INSE0.0 INSE1 INSE1.0 INtoOutE INEJUN0 INEJUN1 INEJUN3 INEJUN4 INEJUN5 INEJUN6 INEJUN7 INEJUN8 INEJUN9 INEJUN10 INEJUN11 INEJUN12 INEJUN13 INEJUN14 INEJUN15 INEJUN16 INEJUN17 INEJUN18 INEJUN19 INEJUN20 INEJUN21 INEJUN22 INEJUN23 INEJUN24 INEJUN25 INEJUN26 INEJUN27 INEJUN28 INEJUN29 INEJUN30 INEJUN31 INEJUN32 INEJUN33 INEJUN34 INEJUN35 INEJUN36 INEJUN37 INEJUN38 INEJUN39 INEJUN40 INEJUN41 INEJUN42 INEJUN43 INEJUN44 INEJUN45 INEJUN46 INEJUN47 INEJUN48 INEJUN49 INEJUN50 INEJUN51 INEJUN52_pitch0.09 INEJUN53_height0.95_pitch0.156 INEJUN54_height2.1_pitch0.175 INEJUN55_height4.75_pitch0.031 INEJUN56_height5.0 INEJUN57_height5.0 UPNE0to1_height5.0 UPNE1to2_height5.0_roll-0.01 UPNE2to3_height5.0_roll-0.02 UPNE3to4_height5.0_roll-0.03 UPNE4to5_height5.0_roll-0.04 UPNE5to6_height5.0_roll-0.05 UPNE6to7_height5.0_roll-0.06 UPNE7to8_height5.0_roll-0.07 UPNE8to9_height5.0_roll-0.08 UPNE9to10_height5.0_roll-0.09 UPNE10to11_height5.0_roll-0.10 UPNE11to12_height5.0_roll-0.11 UPNE12to13_height5.0_roll-0.12 UPNE13to14_height5.0_roll-0.13 UPNE14to15_height5.0_roll-0.14 UPNE15to16_height5.0_roll-0.15 UPNE16to17_height5.0_roll-0.15 UPNE17to18_height5.0_roll-0.14 UPNE18to19_height5.0_roll-0.13 UPNE19to20_height5.0_roll-0.12 UPNE20to21_height5.0_roll-0.11 UPNE21to22_height5.0_roll-0.10 UPNE22to23_height5.0_roll-0.09 UPNE23to24_height5.0_roll-0.08 UPNE24to25_height5.0_roll-0.07 UPNE25to26_height5.0_roll-0.06 UPNE26to27_height5.0_roll-0.05 UPNE27to28_height5.0_roll-0.04 UPNE28to29_height5.0_roll-0.03 UPNE29to30_height5.0_roll-0.02 UPNE30to31_height5.0_roll-0.01 UPNE31to32_height5.0 UPNOut_height5.0 UPNW31to32_height5.0 UPNW30to31_height5.0_roll-0.01 UPNW29to30_height5.0_roll-0.02 UPNW28to29_height5.0_roll-0.03 UPNW27to28_height5.0_roll-0.04 UPNW26to27_height5.0_roll-0.05 UPNW25to26_height5.0_roll-0.06 UPNW24to25_height5.0_roll-0.07 UPNW23to24_height5.0_roll-0.08 UPNW22to23_height5.0_roll-0.09 UPNW21to22_height5.0_roll-0.10 UPNW20to21_height5.0_roll-0.11 UPNW19to20_height5.0_roll-0.12 UPNW18to19_height5.0_roll-0.13 UPNW17to18_height5.0_roll-0.14 UPNW16to17_height5.0_roll-0.15 UPNW15to16_height5.0_roll-0.15 UPNW14to15_height5.0_roll-0.14 UPNW13to14_height5.0_roll-0.13 UPNW12to13_height5.0_roll-0.12 UPNW11to12_height5.0_roll-0.11 UPNW10to11_height5.0_roll-0.10 UPNW9to10_height5.0_roll-0.09 UPNW8to9_height5.0_roll-0.08 UPNW7to8_height5.0_roll-0.07 UPNW6to7_height5.0_roll-0.06 UPNW5to6_height5.0_roll-0.05 UPNW4to5_height5.0_roll-0.04 UPNW3to4_height5.0_roll-0.03 UPNW2to3_height5.0_roll-0.02 UPNW1to2_height5.0_roll-0.01 UPNW0to1_height5.0 OUTWJUN57_height5.0 OUTWJUN56_height5.0 OUTWJUN55_height5.0_pitch-0.081 OUTWJUN54_height4.35_pitch-0.175 OUTWJUN53_height1.7_pitch-0.141 OUTWJUN52_height0.7_pitch-0.062 OUTWJUN51 OUTWJUN50 OUTWJUN49 OUTWJUN48 OUTWJUN47 OUTWJUN46 OUTWJUN45 OUTWJUN44 OUTWJUN43 OUTWJUN42 OUTWJUN41 OUTWJUN40 OUTWJUN39 OUTWJUN38 OUTWJUN37 OUTWJUN36 OUTWJUN35 OUTWJUN34 OUTWJUN33 OUTWJUN32 OUTWJUN31 OUTWJUN30 OUTWJUN29 OUTWJUN28 OUTWJUN27 OUTWJUN26 OUTWJUN25 OUTWJUN24 OUTWJUN23 OUTWJUN22 OUTWJUN21 OUTWJUN20 OUTWJUN19 OUTWJUN18 OUTWJUN17 OUTWJUN16 OUTWJUN15 OUTWJUN14 OUTWJUN13 OUTWJUN12 OUTWJUN11 OUTWJUN10 OUTWJUN9 OUTWJUN8 OUTWJUN7 OUTWJUN6 OUTWJUN5 OUTWJUN4 OUTWJUN3 OUTWJUN1 OUTWJUN0 INtoOutW OUTSW1 OUTSW1.0 OUTSW0 OUTSW0.0"/>
    </vehicle>
    <vehicle id="1.1" type="vehicle" depart="18.00" departLane="random" departSpeed="random">
        <route edges="INNW0.0 INNW1 INNW1.0 INtoOutW INWJUN0 INWJUN1 INWJUN3 INWJUN4 INWJUN5 INWJUN6 INWJUN7 INWJUN8 INWJUN9 INWJUN10 INWJUN11 INWJUN12 INWJUN13 INWJUN14 INWJUN15 INWJUN16 INWJUN17 INWJUN18 INWJUN19 INWJUN20 INWJUN21 INWJUN22 INWJUN23 INWJUN24 INWJUN25 INWJUN26 INWJUN27 INWJUN28 INWJUN29 INWJUN30 INWJUN31 INWJUN32 INWJUN33 INWJUN34 INWJUN35 INWJUN36 INWJUN37 INWJUN38 INWJUN39 INWJUN40 INWJUN41 INWJUN42 INWJUN43 INWJUN44 INWJUN45 INWJUN46 INWJUN47 INWJUN48 INWJUN49 INWJUN50 INWJUN51 INWJUN52_pitch0.09 INWJUN53_height0.95_pitch0.156 INWJUN54_height2.1_pitch0.175 INWJUN55_height4.75_pitch0.031 INWJUN56_height5.0 INWJUN57_height5.0 UPSW0to1_height5.0 UPSW1to2_height5.0_roll-0.01 UPSW2to3_height5.0_roll-0.02 UPSW3to4_height5.0_roll-0.03 UPSW4to5_height5.0_roll-0.04 UPSW5to6_height5.0_roll-0.05 UPSW6to7_height5.0_roll-0.06 UPSW7to8_height5.0_roll-0.07 UPSW8to9_height5.0_roll-0.08 UPSW9to10_height5.0_roll-0.09 UPSW10to11_height5.0_roll-0.1 UPSW11to12_height5.0_roll-0.11 UPSW12to13_height5.0_roll-0.12 UPSW13to14_height5.0_roll-0.13 UPSW14to15_height5.0_roll-0.14 UPSW15to16_height5.0_roll-0.15 UPSW16to17_height5.0_roll-0.15 UPSW17to18_height5.0_roll-0.14 UPSW18to19_height5.0_roll-0.13 UPSW19to20_height5.0_roll-0.12 UPSW20to21_height5.0_roll-0.11 UPSW21to22_height5.0_roll-0.10 UPSW22to23_height5.0_roll-0.09 UPSW23to24_height5.0_roll-0.08 UPSW24to25_height5.0_roll-0.07 UPSW25to26_height5.0_roll-0.06 UPSW26to27_height5.0_roll-0.05 UPSW27to28_height5.0_roll-0.04 UPSW28to29_height5.0_roll-0.03 UPSW29to30_height5.0_roll-0.02 UPSW30to31_height5.0_roll-0.01 UPSW31to32_height5.0 UPSOut_height5.0 UPSE31to32_height5.0 UPSE30to31_height5.0_roll-0.01 UPSE29to30_height5.0_roll-0.02 UPSE28to29_height5.0_roll-0.03 UPSE27to28_height5.0_roll-0.04 UPSE26to27_height5.0_roll-0.05 UPSE25to26_height5.0_roll-0.06 UPSE24to25_height5.0_roll-0.07 UPSE23to24_height5.0_roll-0.08 UPSE22to23_height5.0_roll-0.09 UPSE21to22_height5.0_roll-0.10 UPSE20to21_height5.0_roll-0.11 UPSE19to20_height5.0_roll-0.12 UPSE18to19_height5.0_roll-0.13 UPSE17to18_height5.0_roll-0.14 UPSE16to17_height5.0_roll-0.15 UPSE15to16_height5.0_roll-0.15 UPSE14to15_height5.0_roll-0.14 UPSE13to14_height5.0_roll-0.13 UPSE12to13_height5.0_roll-0.12 UPSE11to12_height5.0_roll-0.11 UPSE10to11_height5.0_roll-0.1 UPSE9to10_height5.0_roll-0.09 UPSE8to9_height5.0_roll-0.08 UPSE7to8_height5.0_roll-0.07 UPSE6to7_height5.0_roll-0.06 UPSE5to6_height5.0_roll-0.05 UPSE4to5_height5.0_roll-0.04 UPSE3to4_height5.0_roll-0.03 UPSE2to3_height5.0_roll-0.02 UPSE1to2_height5.0_roll-0.01 UPSE0to1_height5.0 OUTEJUN57_height5.0 OUTEJUN56_height5.0 OUTEJUN55_height5.0_pitch-0.081 OUTEJUN54_height4.35_pitch-0.175 OUTEJUN53_height1.7_pitch-0.141 OUTEJUN52_height0.7_pitch-0.062 OUTEJUN51 OUTEJUN50 OUTEJUN49 OUTEJUN48 OUTEJUN47 OUTEJUN46 OUTEJUN45 OUTEJUN44 OUTEJUN43 OUTEJUN42 OUTEJUN41 OUTEJUN40 OUTEJUN39 OUTEJUN38 OUTEJUN37 OUTEJUN36 OUTEJUN35 OUTEJUN34 OUTEJUN33 OUTEJUN32 OUTEJUN31 OUTEJUN30 OUTEJUN29 OUTEJUN28 OUTEJUN27 OUTEJUN26 OUTEJUN25 OUTEJUN24 OUTEJUN23 OUTEJUN22 OUTEJUN21 OUTEJUN20 OUTEJUN19 OUTEJUN18 OUTEJUN17 OUTEJUN16 OUTEJUN15 OUTEJUN14 OUTEJUN13 OUTEJUN12 OUTEJUN11 OUTEJUN10 OUTEJUN9 OUTEJUN8 OUTEJUN7 OUTEJUN6 OUTEJUN5 OUTEJUN4 OUTEJUN3 OUTEJUN1 OUTEJUN0 INtoOutE OUTNE1 OUTNE1.0 OUTNE0 OUTNE0.0"/>
    </vehicle>
    <vehicle id="0.2" type="vehicle" depart="36.00" departLane="random" departSpeed="random">
        <route edges="INSE0.0 INSE1 INSE1.0 INtoOutE INEJUN0 INEJUN1 INEJUN3 INEJUN4 INEJUN5 INEJUN6 INEJUN7 INEJUN8 INEJUN9 INEJUN10 INEJUN11 INEJUN12 INEJUN13 INEJUN14 INEJUN15 INEJUN16 INEJUN17 INEJUN18 INEJUN19 INEJUN20 INEJUN21 INEJUN22 INEJUN23 INEJUN24 INEJUN25 INEJUN26 INEJUN27 INEJUN28 INEJUN29 INEJUN30 INEJUN31 INEJUN32 INEJUN33 INEJUN34 INEJUN35 INEJUN36 INEJUN37 INEJUN38 INEJUN39 INEJUN40 INEJUN41 INEJUN42 INEJUN43 INEJUN44 INEJUN45 INEJUN46 INEJUN47 INEJUN48 INEJUN49 INEJUN50 INEJUN51 INEJUN52_pitch0.09 INEJUN53_height0.95_pitch0.156 INEJUN54_height2.1_pitch0.175 INEJUN55_height4.75_pitch0.031 INEJUN56_height5.0 INEJUN57_height5.0 UPNE0to1_height5.0 UPNE1to2_height5.0_roll-0.01 UPNE2to3_height5.0_roll-0.02 UPNE3to4_height5.0_roll-0.03 UPNE4to5_height5.0_roll-0.04 UPNE5to6_height5.0_roll-0.05 UPNE6to7_height5.0_roll-0.06 UPNE7to8_height5.0_roll-0.07 UPNE8to9_height5.0_roll-0.08 UPNE9to10_height5.0_roll-0.09 UPNE10to11_height5.0_roll-0.10 UPNE11to12_height5.0_roll-0.11 UPNE12to13_height5.0_roll-0.12 UPNE13to14_height5.0_roll-0.13 UPNE14to15_height5.0_roll-0.14 UPNE15to16_height5.0_roll-0.15 UPNE16to17_height5.0_roll-0.15 UPNE17to18_height5.0_roll-0.14 UPNE18to19_height5.0_roll-0.13 UPNE19to20_height5.0_roll-0.12 UPNE20to21_height5.0_roll-0.11 UPNE21to22_height5.0_roll-0.10 UPNE22to23_height5.0_roll-0.09 UPNE23to24_height5.0_roll-0.08 UPNE24to25_height5.0_roll-0.07 UPNE25to26_height5.0_roll-0.06 UPNE26to27_height5.0_roll-0.05 UPNE27to28_height5.0_roll-0.04 UPNE28to29_height5.0_roll-0.03 UPNE29to30_height5.0_roll-0.02 UPNE30to31_height5.0_roll-0.01 UPNE31to32_height5.0 UPNOut_height5.0 UPNW31to32_height5.0 UPNW30to31_height5.0_roll-0.01 UPNW29to30_height5.0_roll-0.02 UPNW28to29_height5.0_roll-0.03 UPNW27to28_height5.0_roll-0.04 UPNW26to27_height5.0_roll-0.05 UPNW25to26_height5.0_roll-0.06 UPNW24to25_height5.0_roll-0.07 UPNW23to24_height5.0_roll-0.08 UPNW22to23_height5.0_roll-0.09 UPNW21to22_height5.0_roll-0.10 UPNW20to21_height5.0_roll-0.11 UPNW19to20_height5.0_roll-0.12 UPNW18to19_height5.0_roll-0.13 UPNW17to18_height5.0_roll-0.14 UPNW16to17_height5.0_roll-0.15 UPNW15to16_height5.0_roll-0.15 UPNW14to15_height5.0_roll-0.14 UPNW13to14_height5.0_roll-0.13 UPNW12to13_height5.0_roll-0.12 UPNW11to12_height5.0_roll-0.11 UPNW10to11_height5.0_roll-0.10 UPNW9to10_height5.0_roll-0.09 UPNW8to9_height5.0_roll-0.08 UPNW7to8_height5.0_roll-0.07 UPNW6to7_height5.0_roll-0.06 UPNW5to6_height5.0_roll-0.05 UPNW4to5_height5.0_roll-0.04 UPNW3to4_height5.0_roll-0.03 UPNW2to3_height5.0_roll-0.02 UPNW1to2_height5.0_roll-0.01 UPNW0to1_height5.0 OUTWJUN57_height5.0 OUTWJUN56_height5.0 OUTWJUN55_height5.0_pitch-0.081 OUTWJUN54_height4.35_pitch-0.175 OUTWJUN53_height1.7_pitch-0.141 OUTWJUN52_height0.7_pitch-0.062 OUTWJUN51 OUTWJUN50 OUTWJUN49 OUTWJUN48 OUTWJUN47 OUTWJUN46 OUTWJUN45 OUTWJUN44 OUTWJUN43 OUTWJUN42 OUTWJUN41 OUTWJUN40 OUTWJUN39 OUTWJUN38 OUTWJUN37 OUTWJUN36 OUTWJUN35 OUTWJUN34 OUTWJUN33 OUTWJUN32 OUTWJUN31 OUTWJUN30 OUTWJUN29 OUTWJUN28 OUTWJUN27 OUTWJUN26 OUTWJUN25 OUTWJUN24 OUTWJUN23 OUTWJUN22 OUTWJUN21 OUTWJUN20 OUTWJUN19 OUTWJUN18 OUTWJUN17 OUTWJUN16 OUTWJUN15 OUTWJUN14 OUTWJUN13 OUTWJUN12 OUTWJUN11 OUTWJUN10 OUTWJUN9 OUTWJUN8 OUTWJUN7 OUTWJUN6 OUTWJUN5 OUTWJUN4 OUTWJUN3 OUTWJUN1 OUTWJUN0 INtoOutW OUTSW1 OUTSW1.0 OUTSW0 OUTSW0.0"/>
    </vehicle>
    <vehicle id="1.2" type="vehicle" depart="36.00" departLane="random" departSpeed="random">
        <route edges="INNW0.0 INNW1 INNW1.0 INtoOutW INWJUN0 INWJUN1 INWJUN3 INWJUN4 INWJUN5 INWJUN6 INWJUN7 INWJUN8 INWJUN9 INWJUN10 INWJUN11 INWJUN12 INWJUN13 INWJUN14 INWJUN15 INWJUN16 INWJUN17 INWJUN18 INWJUN19 INWJUN20 INWJUN21 INWJUN22 INWJUN23 INWJUN24 INWJUN25 INWJUN26 INWJUN27 INWJUN28 INWJUN29 INWJUN30 INWJUN31 INWJUN32 INWJUN33 INWJUN34 INWJUN35 INWJUN36 INWJUN37 INWJUN38 INWJUN39 INWJUN40 INWJUN41 INWJUN42 INWJUN43 INWJUN44 INWJUN45 INWJUN46 INWJUN47 INWJUN48 INWJUN49 INWJUN50 INWJUN51 INWJUN52_pitch0.09 INWJUN53_height0.95_pitch0.156 INWJUN54_height2.1_pitch0.175 INWJUN55_height4.75_pitch0.031 INWJUN56_height5.0 INWJUN57_height5.0 UPSW0to1_height5.0 UPSW1to2_height5.0_roll-0.01 UPSW2to3_height5.0_roll-0.02 UPSW3to4_height5.0_roll-0.03 UPSW4to5_height5.0_roll-0.04 UPSW5to6_height5.0_roll-0.05 UPSW6to7_height5.0_roll-0.06 UPSW7to8_height5.0_roll-0.07 UPSW8to9_height5.0_roll-0.08 UPSW9to10_height5.0_roll-0.09 UPSW10to11_height5.0_roll-0.1 UPSW11to12_height5.0_roll-0.11 UPSW12to13_height5.0_roll-0.12 UPSW13to14_height5.0_roll-0.13 UPSW14to15_height5.0_roll-0.14 UPSW15to16_height5.0_roll-0.15 UPSW16to17_height5.0_roll-0.15 UPSW17to18_height5.0_roll-0.14 UPSW18to19_height5.0_roll-0.13 UPSW19to20_height5.0_roll-0.12 UPSW20to21_height5.0_roll-0.11 UPSW21to22_height5.0_roll-0.10 UPSW22to23_height5.0_roll-0.09 UPSW23to24_height5.0_roll-0.08 UPSW24to25_height5.0_roll-0.07 UPSW25to26_height5.0_roll-0.06 UPSW26to27_height5.0_roll-0.05 UPSW27to28_height5.0_roll-0.04 UPSW28to29_height5.0_roll-0.03 UPSW29to30_height5.0_roll-0.02 UPSW30to31_height5.0_roll-0.01 UPSW31to32_height5.0 UPSOut_height5.0 UPSE31to32_height5.0 UPSE30to31_height5.0_roll-0.01 UPSE29to30_height5.0_roll-0.02 UPSE28to29_height5.0_roll-0.03 UPSE27to28_height5.0_roll-0.04 UPSE26to27_height5.0_roll-0.05 UPSE25to26_height5.0_roll-0.06 UPSE24to25_height5.0_roll-0.07 UPSE23to24_height5.0_roll-0.08 UPSE22to23_height5.0_roll-0.09 UPSE21to22_height5.0_roll-0.10 UPSE20to21_height5.0_roll-0.11 UPSE19to20_height5.0_roll-0.12 UPSE18to19_height5.0_roll-0.13 UPSE17to18_height5.0_roll-0.14 UPSE16to17_height5.0_roll-0.15 UPSE15to16_height5.0_roll-0.15 UPSE14to15_height5.0_roll-0.14 UPSE13to14_height5.0_roll-0.13 UPSE12to13_height5.0_roll-0.12 UPSE11to12_height5.0_roll-0.11 UPSE10to11_height5.0_roll-0.1 UPSE9to10_height5.0_roll-0.09 UPSE8to9_height5.0_roll-0.08 UPSE7to8_height5.0_roll-0.07 UPSE6to7_height5.0_roll-0.06 UPSE5to6_height5.0_roll-0.05 UPSE4to5_height5.0_roll-0.04 UPSE3to4_height5.0_roll-0.03 UPSE2to3_height5.0_roll-0.02 UPSE1to2_height5.0_roll-0.01 UPSE0to1_height5.0 OUTEJUN57_height5.0 OUTEJUN56_height5.0 OUTEJUN55_height5.0_pitch-0.081 OUTEJUN54_height4.35_pitch-0.175 OUTEJUN53_height1.7_pitch-0.141 OUTEJUN52_height0.7_pitch-0.062 OUTEJUN51 OUTEJUN50 OUTEJUN49 OUTEJUN48 OUTEJUN47 OUTEJUN46 OUTEJUN45 OUTEJUN44 OUTEJUN43 OUTEJUN42 OUTEJUN41 OUTEJUN40 OUTEJUN39 OUTEJUN38 OUTEJUN37 OUTEJUN36 OUTEJUN35 OUTEJUN34 OUTEJUN33 OUTEJUN32 OUTEJUN31 OUTEJUN30 OUTEJUN29 OUTEJUN28 OUTEJUN27 OUTEJUN26 OUTEJUN25 OUTEJUN24 OUTEJUN23 OUTEJUN22 OUTEJUN21 OUTEJUN20 OUTEJUN19 OUTEJUN18 OUTEJUN17 OUTEJUN16 OUTEJUN15 OUTEJUN14 OUTEJUN13 OUTEJUN12 OUTEJUN11 OUTEJUN10 OUTEJUN9 OUTEJUN8 OUTEJUN7 OUTEJUN6 OUTEJUN5 OUTEJUN4 OUTEJUN3 OUTEJUN1 OUTEJUN0 INtoOutE OUTNE1 OUTNE1.0 OUTNE0 OUTNE0.0"/>
    </vehicle>
    <vehicle id="0.3" type="vehicle" depart="54.00" departLane="random" departSpeed="random">
        <route edges="INSE0.0 INSE1 INSE1.0 INtoOutE INEJUN0 INEJUN1 INEJUN3 INEJUN4 INEJUN5 INEJUN6 INEJUN7 INEJUN8 INEJUN9 INEJUN10 INEJUN11 INEJUN12 INEJUN13 INEJUN14 INEJUN15 INEJUN16 INEJUN17 INEJUN18 INEJUN19 INEJUN20 INEJUN21 INEJUN22 INEJUN23 INEJUN24 INEJUN25 INEJUN26 INEJUN27 INEJUN28 INEJUN29 INEJUN30 INEJUN31 INEJUN32 INEJUN33 INEJUN34 INEJUN35 INEJUN36 INEJUN37 INEJUN38 INEJUN39 INEJUN40 INEJUN41 INEJUN42 INEJUN43 INEJUN44 INEJUN45 INEJUN46 INEJUN47 INEJUN48 INEJUN49 INEJUN50 INEJUN51 INEJUN52_pitch0.09 INEJUN53_height0.95_pitch0.156 INEJUN54_height2.1_pitch0.175 INEJUN55_height4.75_pitch0.031 INEJUN56_height5.0 INEJUN57_height5.0 UPNE0to1_height5.0 UPNE1to2_height5.0_roll-0.01 UPNE2to3_height5.0_roll-0.02 UPNE3to4_height5.0_roll-0.03 UPNE4to5_height5.0_roll-0.04 UPNE5to6_height5.0_roll-0.05 UPNE6to7_height5.0_roll-0.06 UPNE7to8_height5.0_roll-0.07 UPNE8to9_height5.0_roll-0.08 UPNE9to10_height5.0_roll-0.09 UPNE10to11_height5.0_roll-0.10 UPNE11to12_height5.0_roll-0.11 UPNE12to13_height5.0_roll-0.12 UPNE13to14_height5.0_roll-0.13 UPNE14to15_height5.0_roll-0.14 UPNE15to16_height5.0_roll-0.15 UPNE16to17_height5.0_roll-0.15 UPNE17to18_height5.0_roll-0.14 UPNE18to19_height5.0_roll-0.13 UPNE19to20_height5.0_roll-0.12 UPNE20to21_height5.0_roll-0.11 UPNE21to22_height5.0_roll-0.10 UPNE22to23_height5.0_roll-0.09 UPNE23to24_height5.0_roll-0.08 UPNE24to25_height5.0_roll-0.07 UPNE25to26_height5.0_roll-0.06 UPNE26to27_height5.0_roll-0.05 UPNE27to28_height5.0_roll-0.04 UPNE28to29_height5.0_roll-0.03 UPNE29to30_height5.0_roll-0.02 UPNE30to31_height5.0_roll-0.01 UPNE31to32_height5.0 UPNOut_height5.0 UPNW31to32_height5.0 UPNW30to31_height5.0_roll-0.01 UPNW29to30_height5.0_roll-0.02 UPNW28to29_height5.0_roll-0.03 UPNW27to28_height5.0_roll-0.04 UPNW26to27_height5.0_roll-0.05 UPNW25to26_height5.0_roll-0.06 UPNW24to25_height5.0_roll-0.07 UPNW23to24_height5.0_roll-0.08 UPNW22to23_height5.0_roll-0.09 UPNW21to22_height5.0_roll-0.10 UPNW20to21_height5.0_roll-0.11 UPNW19to20_height5.0_roll-0.12 UPNW18to19_height5.0_roll-0.13 UPNW17to18_height5.0_roll-0.14 UPNW16to17_height5.0_roll-0.15 UPNW15to16_height5.0_roll-0.15 UPNW14to15_height5.0_roll-0.14 UPNW13to14_height5.0_roll-0.13 UPNW12to13_height5.0_roll-0.12 UPNW11to12_height5.0_roll-0.11 UPNW10to11_height5.0_roll-0.10 UPNW9to10_height5.0_roll-0.09 UPNW8to9_height5.0_roll-0.08 UPNW7to8_height5.0_roll-0.07 UPNW6to7_height5.0_roll-0.06 UPNW5to6_height5.0_roll-0.05 UPNW4to5_height5.0_roll-0.04 UPNW3to4_height5.0_roll-0.03 UPNW2to3_height5.0_roll-0.02 UPNW1to2_height5.0_roll-0.01 UPNW0to1_height5.0 OUTWJUN57_height5.0 OUTWJUN56_height5.0 OUTWJUN55_height5.0_pitch-0.081 OUTWJUN54_height4.35_pitch-0.175 OUTWJUN53_height1.7_pitch-0.141 OUTWJUN52_height0.7_pitch-0.062 OUTWJUN51 OUTWJUN50 OUTWJUN49 OUTWJUN48 OUTWJUN47 OUTWJUN46 OUTWJUN45 OUTWJUN44 OUTWJUN43 OUTWJUN42 OUTWJUN41 OUTWJUN40 OUTWJUN39 OUTWJUN38 OUTWJUN37 OUTWJUN36 OUTWJUN35 OUTWJUN34 OUTWJUN33 OUTWJUN32 OUTWJUN31 OUTWJUN30 OUTWJUN29 OUTWJUN28 OUTWJUN27 OUTWJUN26 OUTWJUN25 OUTWJUN24 OUTWJUN23 OUTWJUN22 OUTWJUN21 OUTWJUN20 OUTWJUN19 OUTWJUN18 OUTWJUN17 OUTWJUN16 OUTWJUN15 OUTWJUN14 OUTWJUN13 OUTWJUN12 OUTWJUN11 OUTWJUN10 OUTWJUN9 OUTWJUN8 OUTWJUN7 OUTWJUN6 OUTWJUN5 OUTWJUN4 OUTWJUN3 OUTWJUN1 OUTWJUN0 INtoOutW OUTSW1 OUTSW1.0 OUTSW0 OUTSW0.0"/>
    </vehicle>
    <vehicle id="1.3" type="vehicle" depart="54.00" departLane="random" departSpeed="random">
        <route edges="INNW0.0 INNW1 INNW1.0 INtoOutW INWJUN0 INWJUN1 INWJUN3 INWJUN4 INWJUN5 INWJUN6 INWJUN7 INWJUN8 INWJUN9 INWJUN10 INWJUN11 INWJUN12 INWJUN13 INWJUN14 INWJUN15 INWJUN16 INWJUN17 INWJUN18 INWJUN19 INWJUN20 INWJUN21 INWJUN22 INWJUN23 INWJUN24 INWJUN25 INWJUN26 INWJUN27 INWJUN28 INWJUN29 INWJUN30 INWJUN31 INWJUN32 INWJUN33 INWJUN34 INWJUN35 INWJUN36 INWJUN37 INWJUN38 INWJUN39 INWJUN40 INWJUN41 INWJUN42 INWJUN43 INWJUN44 INWJUN45 INWJUN46 INWJUN47 INWJUN48 INWJUN49 INWJUN50 INWJUN51 INWJUN52_pitch0.09 INWJUN53_height0.95_pitch0.156 INWJUN54_height2.1_pitch0.175 INWJUN55_height4.75_pitch0.031 INWJUN56_height5.0 INWJUN57_height5.0 UPSW0to1_height5.0 UPSW1to2_height5.0_roll-0.01 UPSW2to3_height5.0_roll-0.02 UPSW3to4_height5.0_roll-0.03 UPSW4to5_height5.0_roll-0.04 UPSW5to6_height5.0_roll-0.05 UPSW6to7_height5.0_roll-0.06 UPSW7to8_height5.0_roll-0.07 UPSW8to9_height5.0_roll-0.08 UPSW9to10_height5.0_roll-0.09 UPSW10to11_height5.0_roll-0.1 UPSW11to12_height5.0_roll-0.11 UPSW12to13_height5.0_roll-0.12 UPSW13to14_height5.0_roll-0.13 UPSW14to15_height5.0_roll-0.14 UPSW15to16_height5.0_roll-0.15 UPSW16to17_height5.0_roll-0.15 UPSW17to18_height5.0_roll-0.14 UPSW18to19_height5.0_roll-0.13 UPSW19to20_height5.0_roll-0.12 UPSW20to21_height5.0_roll-0.11 UPSW21to22_height5.0_roll-0.10 UPSW22to23_height5.0_roll-0.09 UPSW23to24_height5.0_roll-0.08 UPSW24to25_height5.0_roll-0.07 UPSW25to26_height5.0_roll-0.06 UPSW26to27_height5.0_roll-0.05 UPSW27to28_height5.0_roll-0.04 UPSW28to29_height5.0_roll-0.03 UPSW29to30_height5.0_roll-0.02 UPSW30to31_height5.0_roll-0.01 UPSW31to32_height5.0 UPSOut_height5.0 UPSE31to32_height5.0 UPSE30to31_height5.0_roll-0.01 UPSE29to30_height5.0_roll-0.02 UPSE28to29_height5.0_roll-0.03 UPSE27to28_height5.0_roll-0.04 UPSE26to27_height5.0_roll-0.05 UPSE25to26_height5.0_roll-0.06 UPSE24to25_height5.0_roll-0.07 UPSE23to24_height5.0_roll-0.08 UPSE22to23_height5.0_roll-0.09 UPSE21to22_height5.0_roll-0.10 UPSE20to21_height5.0_roll-0.11 UPSE19to20_height5.0_roll-0.12 UPSE18to19_height5.0_roll-0.13 UPSE17to18_height5.0_roll-0.14 UPSE16to17_height5.0_roll-0.15 UPSE15to16_height5.0_roll-0.15 UPSE14to15_height5.0_roll-0.14 UPSE13to14_height5.0_roll-0.13 UPSE12to13_height5.0_roll-0.12 UPSE11to12_height5.0_roll-0.11 UPSE10to11_height5.0_roll-0.1 UPSE9to10_height5.0_roll-0.09 UPSE8to9_height5.0_roll-0.08 UPSE7to8_height5.0_roll-0.07 UPSE6to7_height5.0_roll-0.06 UPSE5to6_height5.0_roll-0.05 UPSE4to5_height5.0_roll-0.04 UPSE3to4_height5.0_roll-0.03 UPSE2to3_height5.0_roll-0.02 UPSE1to2_height5.0_roll-0.01 UPSE0to1_height5.0 OUTEJUN57_height5.0 OUTEJUN56_height5.0 OUTEJUN55_height5.0_pitch-0.081 OUTEJUN54_height4.35_pitch-0.175 OUTEJUN53_height1.7_pitch-0.141 OUTEJUN52_height0.7_pitch-0.062 OUTEJUN51 OUTEJUN50 OUTEJUN49 OUTEJUN48 OUTEJUN47 OUTEJUN46 OUTEJUN45 OUTEJUN44 OUTEJUN43 OUTEJUN42 OUTEJUN41 OUTEJUN40 OUTEJUN39 OUTEJUN38 OUTEJUN37 OUTEJUN36 OUTEJUN35 OUTEJUN34 OUTEJUN33 OUTEJUN32 OUTEJUN31 OUTEJUN30 OUTEJUN29 OUTEJUN28 OUTEJUN27 OUTEJUN26 OUTEJUN25 OUTEJUN24 OUTEJUN23 OUTEJUN22 OUTEJUN21 OUTEJUN20 OUTEJUN19 OUTEJUN18 OUTEJUN17 OUTEJUN16 OUTEJUN15 OUTEJUN14 OUTEJUN13 OUTEJUN12 OUTEJUN11 OUTEJUN10 OUTEJUN9 OUTEJUN8 OUTEJUN7 OUTEJUN6 OUTEJUN5 OUTEJUN4 OUTEJUN3 OUTEJUN1 OUTEJUN0 INtoOutE OUTNE1 OUTNE1.0 OUTNE0 OUTNE0.0"/>
    </vehicle>
    <vehicle id="0.4" type="vehicle" depart="72.00" departLane="random" departSpeed="random">