<?xml version="1.0" encoding="UTF-8"?>

<!-- generated on Mon Nov  8 17:15:13 2021 by SUMO netconvert Version 0.30.0
<?xml version="1.0" encoding="UTF-8"?>

<configuration xmlns:xsi="http://www.w3.org/2001/XMLSchema-instance" xsi:noNamespaceSchemaLocation="http://sumo.dlr.de/xsd/netconvertConfiguration.xsd">

    <input>
        <node-files value="highway_net/sumo.nod.xml"/>
        <edge-files value="highway_net/sumo.edg.xml"/>
    </input>

    <output>
        <output-file value="highway_net/sumo.net.xml"/>
    </output>

</configuration>
-->

<net version="0.27" xmlns:xsi="http://www.w3.org/2001/XMLSchema-instance" xsi:noNamespaceSchemaLocation="http://sumo.dlr.de/xsd/net_file.xsd">

    <location netOffset="273.00,500.00" convBoundary="0.00,0.00,546.00,1000.00" origBoundary="-273.00,-500.00,273.00,500.00" projParameter="!"/>

    <edge id=":INEJUN0_0" function="internal">
        <lane id=":INEJUN0_0_0" index="0" speed="13.90" length="0.23" width="3.50" shape="356.21,415.23 356.20,415.11"/>
        <lane id=":INEJUN0_0_1" index="1" speed="13.90" length="0.23" width="3.50" shape="359.80,415.01 359.77,414.66"/>
    </edge>
    <edge id=":INEJUN1_0" function="internal">
        <lane id=":INEJUN1_0_0" index="0" speed="13.90" length="0.27" width="3.50" shape="353.05,390.36 353.02,389.95"/>
        <lane id=":INEJUN1_0_1" index="1" speed="13.90" length="0.27" width="3.50" shape="356.62,389.91 356.61,389.77"/>
    </edge>
    <edge id=":INEJUN10_0" function="internal">
        <lane id=":INEJUN10_0_0" index="0" speed="13.90" length="0.35" width="3.50" shape="342.47,364.47 342.44,364.43 342.41,364.40 342.39,364.38 342.35,364.34"/>
        <lane id=":INEJUN10_0_1" index="1" speed="13.90" length="0.35" width="3.50" shape="345.14,362.05 345.03,361.93 344.96,361.86 344.88,361.78 344.77,361.68"/>
    </edge>
    <edge id=":INEJUN11_0" function="internal">
        <lane id=":INEJUN11_0_0" index="0" speed="13.90" length="0.35" width="3.50" shape="339.85,362.08 339.81,362.04 339.78,362.02 339.75,362.00 339.71,361.97"/>
        <lane id=":INEJUN11_0_1" index="1" speed="13.90" length="0.35" width="3.50" shape="342.26,359.41 342.15,359.30 342.07,359.23 341.98,359.17 341.86,359.07"/>
    </edge>
    <edge id=":INEJUN12_0" function="internal">
        <lane id=":INEJUN12_0_0" index="0" speed="13.90" length="0.35" width="3.50" shape="337.00,359.95 336.96,359.92 336.93,359.90 336.90,359.88 336.86,359.86"/>
        <lane id=":INEJUN12_0_1" index="1" speed="13.90" length="0.35" width="3.50" shape="339.14,357.06 339.02,356.97 338.93,356.91 338.84,356.85 338.71,356.77"/>
    </edge>
    <edge id=":INEJUN13_0" function="internal">
        <lane id=":INEJUN13_0_0" index="0" speed="13.90" length="0.35" width="3.50" shape="333.96,358.12 333.91,358.09 333.88,358.08 333.85,358.06 333.80,358.04"/>
        <lane id=":INEJUN13_0_1" index="1" speed="13.90" length="0.35" width="3.50" shape="335.81,355.03 335.67,354.95 335.58,354.90 335.48,354.85 335.34,354.78"/>
    </edge>
    <edge id=":INEJUN14_0" function="internal">
        <lane id=":INEJUN14_0_0" index="0" speed="13.90" length="0.35" width="3.50" shape="330.75,356.59 330.70,356.57 330.67,356.56 330.64,356.55 330.59,356.53"/>
        <lane id=":INEJUN14_0_1" index="1" speed="13.90" length="0.35" width="3.50" shape="332.29,353.34 332.15,353.27 332.05,353.23 331.95,353.19 331.80,353.14"/>
    </edge>
    <edge id=":INEJUN15_0" function="internal">
        <lane id=":INEJUN15_0_0" index="0" speed="13.90" length="0.35" width="3.50" shape="327.41,355.39 327.36,355.37 327.33,355.36 327.29,355.35 327.24,355.34"/>
        <lane id=":INEJUN15_0_1" index="1" speed="13.90" length="0.35" width="3.50" shape="328.62,352.00 328.47,351.95 328.37,351.91 328.27,351.89 328.12,351.85"/>
    </edge>
    <edge id=":INEJUN16_0" function="internal">
        <lane id=":INEJUN16_0_0" index="0" speed="13.90" length="0.35" width="3.50" shape="323.96,354.52 323.91,354.51 323.88,354.50 323.85,354.49 323.80,354.48"/>
        <lane id=":INEJUN16_0_1" index="1" speed="13.90" length="0.35" width="3.50" shape="324.84,351.03 324.69,350.99 324.58,350.97 324.48,350.95 324.32,350.92"/>
    </edge>
    <edge id=":INEJUN17_0" function="internal">
        <lane id=":INEJUN17_0_0" index="0" speed="13.90" length="0.35" width="3.50" shape="320.45,353.99 320.40,353.98 320.37,353.98 320.33,353.97 320.28,353.97"/>
        <lane id=":INEJUN17_0_1" index="1" speed="13.90" length="0.35" width="3.50" shape="320.98,350.43 320.83,350.41 320.72,350.39 320.61,350.38 320.46,350.38"/>
    </edge>
    <edge id=":INEJUN18_0" function="internal">
        <lane id=":INEJUN18_0_0" index="0" speed="13.90" length="0.35" width="3.50" shape="316.90,353.81 316.85,353.80 316.82,353.80 316.78,353.80 316.73,353.81"/>
        <lane id=":INEJUN18_0_1" index="1" speed="13.90" length="0.35" width="3.50" shape="317.08,350.21 316.93,350.20 316.82,350.20 316.71,350.20 316.56,350.21"/>
    </edge>
    <edge id=":INEJUN19_0" function="internal">
        <lane id=":INEJUN19_0_0" index="0" speed="13.90" length="0.35" width="3.50" shape="313.36,353.97 313.31,353.98 313.27,353.98 313.24,353.98 313.19,353.99"/>
        <lane id=":INEJUN19_0_1" index="1" speed="13.90" length="0.35" width="3.50" shape="313.18,350.38 313.02,350.38 312.92,350.39 312.81,350.41 312.66,350.43"/>
    </edge>
    <edge id=":INEJUN20_0" function="internal">
        <lane id=":INEJUN20_0_0" index="0" speed="13.90" length="0.35" width="3.50" shape="309.84,354.49 309.79,354.49 309.76,354.50 309.72,354.51 309.67,354.52"/>
        <lane id=":INEJUN20_0_1" index="1" speed="13.90" length="0.35" width="3.50" shape="309.31,350.92 309.16,350.95 309.05,350.97 308.95,350.99 308.80,351.03"/>
    </edge>
    <edge id=":INEJUN21_0" function="internal">
        <lane id=":INEJUN21_0_0" index="0" speed="13.90" length="0.35" width="3.50" shape="306.39,355.34 306.35,355.35 306.31,355.36 306.28,355.37 306.23,355.39"/>
        <lane id=":INEJUN21_0_1" index="1" speed="13.90" length="0.35" width="3.50" shape="305.52,351.85 305.37,351.89 305.27,351.92 305.16,351.95 305.02,352.00"/>
    </edge>
    <edge id=":INEJUN22_0" function="internal">
        <lane id=":INEJUN22_0_0" index="0" speed="13.90" length="0.35" width="3.50" shape="303.05,356.53 303.00,356.55 302.97,356.56 302.94,356.57 302.89,356.59"/>
        <lane id=":INEJUN22_0_1" index="1" speed="13.90" length="0.35" width="3.50" shape="301.83,353.14 301.69,353.19 301.59,353.23 301.49,353.27 301.35,353.34"/>
    </edge>
    <edge id=":INEJUN23_0" function="internal">
        <lane id=":INEJUN23_0_0" index="0" speed="13.90" length="0.35" width="3.50" shape="299.83,358.04 299.79,358.06 299.76,358.08 299.73,358.09 299.68,358.12"/>
        <lane id=":INEJUN23_0_1" index="1" speed="13.90" length="0.35" width="3.50" shape="298.29,354.79 298.15,354.85 298.06,354.90 297.96,354.95 297.83,355.03"/>
    </edge>
    <edge id=":INEJUN24_0" function="internal">
        <lane id=":INEJUN24_0_0" index="0" speed="13.90" length="0.35" width="3.50" shape="296.78,359.86 296.74,359.89 296.71,359.90 296.68,359.92 296.64,359.95"/>
        <lane id=":INEJUN24_0_1" index="1" speed="13.90" length="0.35" width="3.50" shape="294.93,356.77 294.80,356.85 294.71,356.91 294.62,356.97 294.50,357.06"/>
    </edge>
    <edge id=":INEJUN25_0" function="internal">
        <lane id=":INEJUN25_0_0" index="0" speed="13.90" length="0.35" width="3.50" shape="293.92,361.97 293.88,362.00 293.86,362.02 293.83,362.04 293.79,362.08"/>
        <lane id=":INEJUN25_0_1" index="1" speed="13.90" length="0.35" width="3.50" shape="291.78,359.08 291.66,359.17 291.57,359.24 291.49,359.31 291.37,359.41"/>
    </edge>
    <edge id=":INEJUN26_0" function="internal">
        <lane id=":INEJUN26_0_0" index="0" speed="13.90" length="0.35" width="3.50" shape="291.29,364.35 291.25,364.38 291.22,364.41 291.20,364.43 291.17,364.47"/>
        <lane id=":INEJUN26_0_1" index="1" speed="13.90" length="0.35" width="3.50" shape="288.87,361.68 288.75,361.78 288.68,361.86 288.60,361.94 288.50,362.05"/>
    </edge>
    <edge id=":INEJUN27_0" function="internal">
        <lane id=":INEJUN27_0_0" index="0" speed="13.90" length="0.35" width="3.50" shape="288.90,366.97 288.86,367.01 288.84,367.04 288.82,367.07 288.79,367.11"/>
        <lane id=":INEJUN27_0_1" index="1" speed="13.90" length="0.35" width="3.50" shape="286.23,364.56 286.12,364.67 286.05,364.75 285.99,364.84 285.90,364.96"/>
    </edge>
    <edge id=":INEJUN28_0" function="internal">
        <lane id=":INEJUN28_0_0" index="0" speed="13.90" length="0.35" width="3.50" shape="286.77,369.82 286.74,369.86 286.72,369.89 286.70,369.92 286.68,369.96"/>
        <lane id=":INEJUN28_0_1" index="1" speed="13.90" length="0.35" width="3.50" shape="283.88,367.68 283.79,367.80 283.73,367.89 283.67,367.98 283.59,368.11"/>
    </edge>
    <edge id=":INEJUN29_0" function="internal">
        <lane id=":INEJUN29_0_0" index="0" speed="13.90" length="0.35" width="3.50" shape="284.94,372.86 284.91,372.91 284.90,372.94 284.88,372.97 284.86,373.01"/>
        <lane id=":INEJUN29_0_1" index="1" speed="13.90" length="0.35" width="3.50" shape="281.85,371.01 281.77,371.15 281.72,371.24 281.67,371.33 281.61,371.48"/>
    </edge>
    <edge id=":INEJUN3_0" function="internal">
        <lane id=":INEJUN3_0_0" index="0" speed="13.90" length="0.35" width="3.50" shape="352.85,386.53 352.84,386.48 352.84,386.45 352.84,386.41 352.83,386.36"/>
        <lane id=":INEJUN3_0_1" index="1" speed="13.90" length="0.35" width="3.50" shape="356.44,386.36 356.44,386.20 356.43,386.10 356.41,385.99 356.39,385.84"/>
    </edge>
    <edge id=":INEJUN30_0" function="internal">
        <lane id=":INEJUN30_0_0" index="0" speed="13.90" length="0.35" width="3.50" shape="283.41,376.07 283.39,376.12 283.38,376.15 283.37,376.18 283.35,376.23"/>
        <lane id=":INEJUN30_0_1" index="1" speed="13.90" length="0.35" width="3.50" shape="280.16,374.53 280.09,374.67 280.05,374.77 280.01,374.87 279.96,375.02"/>
    </edge>
    <edge id=":INEJUN31_0" function="internal">
        <lane id=":INEJUN31_0_0" index="0" speed="13.90" length="0.35" width="3.50" shape="282.21,379.41 282.19,379.46 282.18,379.49 282.17,379.53 282.16,379.58"/>
        <lane id=":INEJUN31_0_1" index="1" speed="13.90" length="0.35" width="3.50" shape="278.82,378.20 278.77,378.35 278.73,378.45 278.71,378.55 278.67,378.70"/>
    </edge>
    <edge id=":INEJUN32_0" function="internal">
        <lane id=":INEJUN32_0_0" index="0" speed="13.90" length="0.35" width="3.50" shape="281.34,382.85 281.33,382.90 281.32,382.94 281.31,382.97 281.31,383.02"/>
        <lane id=":INEJUN32_0_1" index="1" speed="13.90" length="0.35" width="3.50" shape="277.85,381.98 277.81,382.13 277.79,382.24 277.77,382.34 277.74,382.50"/>
    </edge>
    <edge id=":INEJUN33_0" function="internal">
        <lane id=":INEJUN33_0_0" index="0" speed="13.90" length="0.35" width="3.50" shape="280.81,386.37 280.80,386.42 280.80,386.45 280.79,386.49 280.79,386.54"/>
        <lane id=":INEJUN33_0_1" index="1" speed="13.90" length="0.35" width="3.50" shape="277.25,385.84 277.23,385.99 277.21,386.10 277.20,386.21 277.20,386.36"/>
    </edge>
    <edge id=":INEJUN34_0" function="internal">
        <lane id=":INEJUN34_0_0" index="0" speed="13.90" length="0.27" width="3.50" shape="280.62,389.95 280.62,390.14"/>
        <lane id=":INEJUN34_0_1" index="1" speed="13.90" length="0.27" width="3.50" shape="277.03,389.78 277.02,390.14"/>
    </edge>
    <edge id=":INEJUN35_0" function="internal">
        <lane id=":INEJUN35_0_0" index="0" speed="13.90" length="0.27" width="3.50" shape="280.62,446.26 280.62,446.45"/>
        <lane id=":INEJUN35_0_1" index="1" speed="13.90" length="0.27" width="3.50" shape="277.02,446.26 277.03,446.62"/>
    </edge>
    <edge id=":INEJUN36_0" function="internal">
        <lane id=":INEJUN36_0_0" index="0" speed="13.90" length="0.35" width="3.50" shape="280.79,449.86 280.79,449.91 280.80,449.95 280.80,449.98 280.81,450.03"/>
        <lane id=":INEJUN36_0_1" index="1" speed="13.90" length="0.35" width="3.50" shape="277.20,450.04 277.20,450.19 277.21,450.30 277.23,450.41 277.25,450.56"/>
    </edge>
    <edge id=":INEJUN37_0" function="internal">
        <lane id=":INEJUN37_0_0" index="0" speed="13.90" length="0.35" width="3.50" shape="281.31,453.38 281.31,453.43 281.32,453.46 281.33,453.50 281.34,453.55"/>
        <lane id=":INEJUN37_0_1" index="1" speed="13.90" length="0.35" width="3.50" shape="277.74,453.91 277.77,454.06 277.79,454.16 277.81,454.27 277.85,454.42"/>
    </edge>
    <edge id=":INEJUN38_0" function="internal">
        <lane id=":INEJUN38_0_0" index="0" speed="13.90" length="0.35" width="3.50" shape="282.16,456.82 282.17,456.87 282.18,456.91 282.19,456.94 282.21,456.99"/>
        <lane id=":INEJUN38_0_1" index="1" speed="13.90" length="0.35" width="3.50" shape="278.67,457.70 278.71,457.85 278.73,457.95 278.77,458.05 278.82,458.20"/>
    </edge>
    <edge id=":INEJUN39_0" function="internal">
        <lane id=":INEJUN39_0_0" index="0" speed="13.90" length="0.35" width="3.50" shape="283.35,460.17 283.37,460.22 283.38,460.25 283.39,460.28 283.41,460.33"/>
        <lane id=":INEJUN39_0_1" index="1" speed="13.90" length="0.35" width="3.50" shape="279.96,461.38 280.01,461.53 280.05,461.63 280.09,461.73 280.16,461.87"/>
    </edge>
    <edge id=":INEJUN4_0" function="internal">
        <lane id=":INEJUN4_0_0" index="0" speed="13.90" length="0.35" width="3.50" shape="352.33,383.02 352.33,382.97 352.32,382.94 352.31,382.90 352.30,382.85"/>
        <lane id=":INEJUN4_0_1" index="1" speed="13.90" length="0.35" width="3.50" shape="355.90,382.49 355.87,382.34 355.85,382.23 355.83,382.13 355.79,381.98"/>
    </edge>
    <edge id=":INEJUN40_0" function="internal">
        <lane id=":INEJUN40_0_0" index="0" speed="13.90" length="0.35" width="3.50" shape="284.86,463.39 284.88,463.43 284.90,463.46 284.91,463.49 284.94,463.54"/>
        <lane id=":INEJUN40_0_1" index="1" speed="13.90" length="0.35" width="3.50" shape="281.61,464.93 281.67,465.07 281.72,465.16 281.77,465.25 281.85,465.39"/>
    </edge>
    <edge id=":INEJUN41_0" function="internal">
        <lane id=":INEJUN41_0_0" index="0" speed="13.90" length="0.35" width="3.50" shape="286.68,466.44 286.70,466.48 286.72,466.51 286.74,466.54 286.77,466.58"/>
        <lane id=":INEJUN41_0_1" index="1" speed="13.90" length="0.35" width="3.50" shape="283.59,468.29 283.67,468.42 283.73,468.51 283.79,468.60 283.88,468.72"/>
    </edge>
    <edge id=":INEJUN42_0" function="internal">
        <lane id=":INEJUN42_0_0" index="0" speed="13.90" length="0.35" width="3.50" shape="288.79,469.29 288.82,469.34 288.84,469.36 288.86,469.39 288.90,469.43"/>
        <lane id=":INEJUN42_0_1" index="1" speed="13.90" length="0.35" width="3.50" shape="285.90,471.44 285.99,471.56 286.06,471.65 286.12,471.73 286.23,471.85"/>
    </edge>
    <edge id=":INEJUN43_0" function="internal">
        <lane id=":INEJUN43_0_0" index="0" speed="13.90" length="0.35" width="3.50" shape="291.17,471.93 291.20,471.97 291.23,472.00 291.25,472.02 291.29,472.05"/>
        <lane id=":INEJUN43_0_1" index="1" speed="13.90" length="0.35" width="3.50" shape="288.50,474.35 288.60,474.47 288.68,474.54 288.76,474.62 288.87,474.72"/>
    </edge>
    <edge id=":INEJUN44_0" function="internal">
        <lane id=":INEJUN44_0_0" index="0" speed="13.90" length="0.35" width="3.50" shape="293.79,474.32 293.83,474.36 293.86,474.38 293.88,474.40 293.93,474.43"/>
        <lane id=":INEJUN44_0_1" index="1" speed="13.90" length="0.35" width="3.50" shape="291.38,476.99 291.49,477.10 291.57,477.17 291.66,477.23 291.78,477.32"/>
    </edge>
    <edge id=":INEJUN45_0" function="internal">
        <lane id=":INEJUN45_0_0" index="0" speed="13.90" length="0.35" width="3.50" shape="296.64,476.45 296.68,476.48 296.71,476.50 296.74,476.52 296.78,476.54"/>
        <lane id=":INEJUN45_0_1" index="1" speed="13.90" length="0.35" width="3.50" shape="294.50,479.34 294.62,479.43 294.71,479.49 294.80,479.55 294.93,479.63"/>
    </edge>
    <edge id=":INEJUN46_0" function="internal">
        <lane id=":INEJUN46_0_0" index="0" speed="13.90" length="0.35" width="3.50" shape="299.68,478.28 299.73,478.31 299.76,478.32 299.79,478.34 299.83,478.36"/>
        <lane id=":INEJUN46_0_1" index="1" speed="13.90" length="0.35" width="3.50" shape="297.83,481.37 297.97,481.45 298.06,481.50 298.15,481.55 298.30,481.61"/>
    </edge>
    <edge id=":INEJUN47_0" function="internal">
        <lane id=":INEJUN47_0_0" index="0" speed="13.90" length="0.35" width="3.50" shape="302.89,479.81 302.94,479.83 302.97,479.84 303.00,479.85 303.05,479.87"/>
        <lane id=":INEJUN47_0_1" index="1" speed="13.90" length="0.35" width="3.50" shape="301.35,483.06 301.49,483.13 301.59,483.17 301.69,483.21 301.84,483.26"/>
    </edge>
    <edge id=":INEJUN48_0" function="internal">
        <lane id=":INEJUN48_0_0" index="0" speed="13.90" length="0.35" width="3.50" shape="306.23,481.01 306.28,481.03 306.31,481.04 306.35,481.05 306.40,481.06"/>
        <lane id=":INEJUN48_0_1" index="1" speed="13.90" length="0.35" width="3.50" shape="305.02,484.40 305.17,484.45 305.27,484.49 305.37,484.51 305.52,484.55"/>
    </edge>
    <edge id=":INEJUN49_0" function="internal">
        <lane id=":INEJUN49_0_0" index="0" speed="13.90" length="0.35" width="3.50" shape="309.68,481.88 309.72,481.89 309.76,481.90 309.79,481.91 309.84,481.91"/>
        <lane id=":INEJUN49_0_1" index="1" speed="13.90" length="0.35" width="3.50" shape="308.80,485.37 308.95,485.41 309.06,485.43 309.16,485.45 309.32,485.48"/>
    </edge>
    <edge id=":INEJUN5_0" function="internal">
        <lane id=":INEJUN5_0_0" index="0" speed="13.90" length="0.35" width="3.50" shape="351.48,379.57 351.47,379.52 351.46,379.49 351.45,379.46 351.43,379.41"/>
        <lane id=":INEJUN5_0_1" index="1" speed="13.90" length="0.35" width="3.50" shape="354.97,378.70 354.93,378.55 354.90,378.44 354.87,378.34 354.82,378.20"/>
    </edge>
    <edge id=":INEJUN50_0" function="internal">
        <lane id=":INEJUN50_0_0" index="0" speed="13.90" length="0.35" width="3.50" shape="313.19,482.41 313.24,482.42 313.27,482.42 313.31,482.43 313.36,482.43"/>
        <lane id=":INEJUN50_0_1" index="1" speed="13.90" length="0.35" width="3.50" shape="312.66,485.97 312.81,485.99 312.92,486.01 313.03,486.02 313.18,486.02"/>
    </edge>
    <edge id=":INEJUN51_0" function="internal">
        <lane id=":INEJUN51_0_0" index="0" speed="13.90" length="0.27" width="3.50" shape="316.77,482.60 316.96,482.60"/>
        <lane id=":INEJUN51_0_1" index="1" speed="13.90" length="0.27" width="3.50" shape="316.60,486.19 316.96,486.20"/>
    </edge>
    <edge id=":INEJUN52_0" function="internal">
        <lane id=":INEJUN52_0_0" index="0" speed="13.90" length="0.10" width="3.50" shape="328.00,482.60 328.00,482.60"/>
        <lane id=":INEJUN52_0_1" index="1" speed="13.90" length="0.10" width="3.50" shape="328.00,486.20 328.00,486.20"/>
    </edge>
    <edge id=":INEJUN53_0" function="internal">
        <lane id=":INEJUN53_0_0" index="0" speed="13.90" length="0.10" width="3.50" shape="335.00,482.60 335.00,482.60"/>
        <lane id=":INEJUN53_0_1" index="1" speed="13.90" length="0.10" width="3.50" shape="335.00,486.20 335.00,486.20"/>
    </edge>
    <edge id=":INEJUN54_0" function="internal">
        <lane id=":INEJUN54_0_0" index="0" speed="13.90" length="0.10" width="3.50" shape="350.00,482.60 350.00,482.60"/>
        <lane id=":INEJUN54_0_1" index="1" speed="13.90" length="0.10" width="3.50" shape="350.00,486.20 350.00,486.20"/>
    </edge>
    <edge id=":INEJUN55_0" function="internal">
        <lane id=":INEJUN55_0_0" index="0" speed="13.90" length="0.35" width="3.50" shape="357.82,482.60 357.98,482.60 358.09,482.60 358.20,482.61 358.36,482.63"/>
        <lane id=":INEJUN55_0_1" index="1" speed="13.90" length="0.35" width="3.50" shape="357.82,486.20 357.87,486.20 357.91,486.20 357.95,486.20 358.00,486.21"/>
    </edge>
    <edge id=":INEJUN56_0" function="internal">
        <lane id=":INEJUN56_0_0" index="0" speed="13.90" length="0.29" width="3.50" shape="374.04,484.19 374.30,484.22"/>
        <lane id=":INEJUN56_0_1" index="1" speed="13.90" length="0.29" width="3.50" shape="373.68,487.78 373.99,487.81"/>
    </edge>
    <edge id=":INEJUN6_0" function="internal">
        <lane id=":INEJUN6_0_0" index="0" speed="13.90" length="0.35" width="3.50" shape="350.29,376.23 350.27,376.18 350.26,376.15 350.25,376.11 350.22,376.07"/>
        <lane id=":INEJUN6_0_1" index="1" speed="13.90" length="0.35" width="3.50" shape="353.68,375.01 353.63,374.87 353.59,374.77 353.55,374.67 353.48,374.53"/>
    </edge>
    <edge id=":INEJUN7_0" function="internal">
        <lane id=":INEJUN7_0_0" index="0" speed="13.90" length="0.35" width="3.50" shape="348.78,373.01 348.76,372.97 348.74,372.93 348.72,372.90 348.70,372.86"/>
        <lane id=":INEJUN7_0_1" index="1" speed="13.90" length="0.35" width="3.50" shape="352.03,371.47 351.97,371.33 351.92,371.24 351.87,371.14 351.79,371.01"/>
    </edge>
    <edge id=":INEJUN8_0" function="internal">
        <lane id=":INEJUN8_0_0" index="0" speed="13.90" length="0.35" width="3.50" shape="346.96,369.96 346.93,369.92 346.92,369.89 346.90,369.86 346.86,369.82"/>
        <lane id=":INEJUN8_0_1" index="1" speed="13.90" length="0.35" width="3.50" shape="350.05,368.11 349.97,367.98 349.91,367.89 349.85,367.80 349.76,367.67"/>
    </edge>
    <edge id=":INEJUN9_0" function="internal">
        <lane id=":INEJUN9_0_0" index="0" speed="13.90" length="0.35" width="3.50" shape="344.85,367.10 344.82,367.06 344.80,367.04 344.78,367.01 344.74,366.97"/>
        <lane id=":INEJUN9_0_1" index="1" speed="13.90" length="0.35" width="3.50" shape="347.74,364.96 347.65,364.83 347.58,364.75 347.51,364.67 347.41,364.55"/>
    </edge>
    <edge id=":INNW0.0_0" function="internal">
        <lane id=":INNW0.0_0_0" index="0" speed="13.90" length="1.50" width="3.50" shape="184.33,0.01 184.43,1.51"/>
        <lane id=":INNW0.0_0_1" index="1" speed="13.90" length="1.50" width="3.50" shape="180.73,0.01 180.83,1.51"/>
    </edge>
    <edge id=":INNW1_0" function="internal">
        <lane id=":INNW1_0_0" index="0" speed="13.90" length="2.27" width="3.50" shape="184.43,413.50 187.93,415.00"/>
        <lane id=":INNW1_0_1" index="1" speed="13.90" length="2.27" width="3.50" shape="184.43,413.50 184.33,415.00"/>
        <lane id=":INNW1_0_2" index="2" speed="13.90" length="2.27" width="3.50" shape="180.83,413.50 180.73,415.00"/>
    </edge>
    <edge id=":INNW1.0_0" function="internal">
        <lane id=":INNW1.0_0_0" index="0" speed="13.90" length="1.50" width="3.50" shape="184.33,415.01 184.43,416.51"/>
        <lane id=":INNW1.0_0_1" index="1" speed="13.90" length="1.50" width="3.50" shape="180.73,415.01 180.83,416.51"/>
    </edge>
    <edge id=":INNW2_0" function="internal">
        <lane id=":INNW2_0_0" index="0" speed="13.90" length="3.11" width="3.50" shape="186.24,473.85 187.93,476.31"/>
        <lane id=":INNW2_0_1" index="1" speed="13.90" length="3.11" width="3.50" shape="182.65,473.54 184.33,476.31"/>
    </edge>
    <edge id=":INNW2_2" function="internal">
        <lane id=":INNW2_2_0" index="0" speed="13.90" length="2.77" width="3.50" shape="184.43,473.69 184.33,476.31"/>
        <lane id=":INNW2_2_1" index="1" speed="13.90" length="2.77" width="3.50" shape="180.83,473.38 180.73,476.31"/>
    </edge>
    <edge id=":INSE0.0_0" function="internal">
        <lane id=":INSE0.0_0_0" index="0" speed="13.90" length="1.50" width="3.50" shape="361.67,999.99 361.57,998.49"/>
        <lane id=":INSE0.0_0_1" index="1" speed="13.90" length="1.50" width="3.50" shape="365.27,999.99 365.17,998.49"/>
    </edge>
    <edge id=":INSE1_0" function="internal">
        <lane id=":INSE1_0_0" index="0" speed="13.90" length="2.27" width="3.50" shape="361.57,586.50 358.07,585.00"/>
        <lane id=":INSE1_0_1" index="1" speed="13.90" length="2.27" width="3.50" shape="361.57,586.50 361.67,585.00"/>
        <lane id=":INSE1_0_2" index="2" speed="13.90" length="2.27" width="3.50" shape="365.17,586.50 365.27,585.00"/>
    </edge>
    <edge id=":INSE1.0_0" function="internal">
        <lane id=":INSE1.0_0_0" index="0" speed="13.90" length="1.50" width="3.50" shape="361.67,584.99 361.57,583.49"/>
        <lane id=":INSE1.0_0_1" index="1" speed="13.90" length="1.50" width="3.50" shape="365.27,584.99 365.17,583.49"/>
    </edge>
    <edge id=":INSE2_0" function="internal">
        <lane id=":INSE2_0_0" index="0" speed="13.90" length="3.00" width="3.50" shape="361.57,526.50 361.67,523.50"/>
        <lane id=":INSE2_0_1" index="1" speed="13.90" length="3.00" width="3.50" shape="365.17,526.50 365.27,523.50"/>
    </edge>
    <edge id=":INSE2_2" function="internal">
        <lane id=":INSE2_2_0" index="0" speed="13.90" length="3.58" width="3.50" shape="359.73,526.50 359.54,525.55 358.96,525.00 358.35,524.45 358.07,523.50"/>
        <lane id=":INSE2_2_1" index="1" speed="13.90" length="3.58" width="3.50" shape="363.35,526.50 363.15,525.55 362.56,525.00 361.95,524.45 361.67,523.50"/>
    </edge>
    <edge id=":INWJUN0_0" function="internal">
        <lane id=":INWJUN0_0_0" index="0" speed="13.90" length="0.27" width="3.50" shape="191.36,584.71 191.39,585.02"/>
        <lane id=":INWJUN0_0_1" index="1" speed="13.90" length="0.27" width="3.50" shape="187.77,585.02 187.79,585.25"/>
    </edge>
    <edge id=":INWJUN1_0" function="internal">
        <lane id=":INWJUN1_0_0" index="0" speed="13.90" length="0.29" width="3.50" shape="192.97,609.74 192.98,610.06"/>
        <lane id=":INWJUN1_0_1" index="1" speed="13.90" length="0.29" width="3.50" shape="189.37,609.97 189.39,610.23"/>
    </edge>
    <edge id=":INWJUN10_0" function="internal">
        <lane id=":INWJUN10_0_0" index="0" speed="13.90" length="0.35" width="3.50" shape="203.53,635.53 203.56,635.57 203.59,635.60 203.61,635.62 203.65,635.66"/>
        <lane id=":INWJUN10_0_1" index="1" speed="13.90" length="0.35" width="3.50" shape="200.86,637.95 200.97,638.07 201.04,638.14 201.12,638.22 201.23,638.32"/>
    </edge>
    <edge id=":INWJUN11_0" function="internal">
        <lane id=":INWJUN11_0_0" index="0" speed="13.90" length="0.35" width="3.50" shape="206.15,637.92 206.19,637.96 206.22,637.98 206.25,638.00 206.29,638.03"/>
        <lane id=":INWJUN11_0_1" index="1" speed="13.90" length="0.35" width="3.50" shape="203.74,640.59 203.85,640.70 203.93,640.77 204.02,640.83 204.14,640.93"/>
    </edge>
    <edge id=":INWJUN12_0" function="internal">
        <lane id=":INWJUN12_0_0" index="0" speed="13.90" length="0.35" width="3.50" shape="209.00,640.05 209.04,640.08 209.07,640.10 209.10,640.12 209.14,640.14"/>
        <lane id=":INWJUN12_0_1" index="1" speed="13.90" length="0.35" width="3.50" shape="206.86,642.94 206.98,643.03 207.07,643.09 207.16,643.15 207.29,643.23"/>
    </edge>
    <edge id=":INWJUN13_0" function="internal">
        <lane id=":INWJUN13_0_0" index="0" speed="13.90" length="0.35" width="3.50" shape="212.04,641.88 212.09,641.91 212.12,641.92 212.15,641.94 212.20,641.96"/>
        <lane id=":INWJUN13_0_1" index="1" speed="13.90" length="0.35" width="3.50" shape="210.19,644.97 210.33,645.05 210.42,645.10 210.52,645.15 210.66,645.22"/>
    </edge>
    <edge id=":INWJUN14_0" function="internal">
        <lane id=":INWJUN14_0_0" index="0" speed="13.90" length="0.35" width="3.50" shape="215.25,643.41 215.30,643.43 215.33,643.44 215.36,643.45 215.41,643.47"/>
        <lane id=":INWJUN14_0_1" index="1" speed="13.90" length="0.35" width="3.50" shape="213.71,646.66 213.85,646.73 213.95,646.77 214.05,646.81 214.20,646.86"/>
    </edge>
    <edge id=":INWJUN15_0" function="internal">
        <lane id=":INWJUN15_0_0" index="0" speed="13.90" length="0.35" width="3.50" shape="218.59,644.61 218.64,644.63 218.67,644.64 218.71,644.65 218.76,644.66"/>
        <lane id=":INWJUN15_0_1" index="1" speed="13.90" length="0.35" width="3.50" shape="217.38,648.00 217.53,648.05 217.63,648.09 217.73,648.11 217.88,648.15"/>
    </edge>
    <edge id=":INWJUN16_0" function="internal">
        <lane id=":INWJUN16_0_0" index="0" speed="13.90" length="0.35" width="3.50" shape="222.04,645.48 222.09,645.49 222.12,645.50 222.15,645.51 222.20,645.52"/>
        <lane id=":INWJUN16_0_1" index="1" speed="13.90" length="0.35" width="3.50" shape="221.16,648.97 221.31,649.01 221.42,649.03 221.52,649.05 221.68,649.08"/>
    </edge>
    <edge id=":INWJUN17_0" function="internal">
        <lane id=":INWJUN17_0_0" index="0" speed="13.90" length="0.35" width="3.50" shape="225.55,646.01 225.60,646.02 225.63,646.02 225.67,646.03 225.72,646.03"/>
        <lane id=":INWJUN17_0_1" index="1" speed="13.90" length="0.35" width="3.50" shape="225.02,649.57 225.17,649.59 225.28,649.61 225.39,649.62 225.54,649.62"/>
    </edge>
    <edge id=":INWJUN18_0" function="internal">
        <lane id=":INWJUN18_0_0" index="0" speed="13.90" length="0.35" width="3.50" shape="229.10,646.19 229.15,646.20 229.18,646.20 229.22,646.20 229.27,646.19"/>
        <lane id=":INWJUN18_0_1" index="1" speed="13.90" length="0.35" width="3.50" shape="228.92,649.79 229.07,649.80 229.18,649.80 229.29,649.80 229.44,649.79"/>
    </edge>
    <edge id=":INWJUN19_0" function="internal">
        <lane id=":INWJUN19_0_0" index="0" speed="13.90" length="0.35" width="3.50" shape="232.64,646.03 232.69,646.02 232.73,646.02 232.76,646.02 232.81,646.01"/>
        <lane id=":INWJUN19_0_1" index="1" speed="13.90" length="0.35" width="3.50" shape="232.82,649.62 232.98,649.62 233.08,649.61 233.19,649.59 233.34,649.57"/>
    </edge>
    <edge id=":INWJUN20_0" function="internal">
        <lane id=":INWJUN20_0_0" index="0" speed="13.90" length="0.35" width="3.50" shape="236.16,645.51 236.21,645.51 236.24,645.50 236.28,645.49 236.33,645.48"/>
        <lane id=":INWJUN20_0_1" index="1" speed="13.90" length="0.35" width="3.50" shape="236.69,649.08 236.84,649.05 236.95,649.03 237.05,649.01 237.20,648.97"/>
    </edge>
    <edge id=":INWJUN21_0" function="internal">