<?xml version="1.0" encoding="UTF-8"?>

<!-- generated on 30.05.2017 14:30:43 by Netedit Version 0.30.0
<?xml version="1.0" encoding="UTF-8"?>

<configuration xmlns:xsi="http://www.w3.org/2001/XMLSchema-instance" xsi:noNamespaceSchemaLocation="http://sumo.dlr.de/xsd/netconvertConfiguration.xsd">

    <input>
        <sumo-net-file value="c:\users\david\appdata\local\temp\tmpfjamse\sumo.net.xml"/>
    </input>

    <output>
        <output-file value="C:\msys64\home\David\develop\webots-develop\projects\automobile\worlds\highway_net\sumo.net.xml"/>
    </output>

    <processing>
        <no-turnarounds value="true"/>
        <offset.disable-normalization value="true"/>
        <lefthand value="false"/>
        <junctions.corner-detail value="0"/>
        <rectangular-lane-cut value="false"/>
    </processing>

    <visualisation>
        <registry-viewport value="true"/>
    </visualisation>

</configuration>
-->

<net version="0.27" xmlns:xsi="http://www.w3.org/2001/XMLSchema-instance" xsi:noNamespaceSchemaLocation="http://sumo.dlr.de/xsd/net_file.xsd">

    <location netOffset="500.00,273.00" convBoundary="0.00,0.00,1000.00,546.00" origBoundary="-500.00,-273.00,500.00,273.00" projParameter="!"/>

    <edge id=":INEJUN0_0" function="internal">
        <lane id=":INEJUN0_0_0" index="0" speed="13.90" length="0.27" width="3.50" shape="584.71,354.64 585.02,354.61"/>
        <lane id=":INEJUN0_0_1" index="1" speed="13.90" length="0.27" width="3.50" shape="585.02,358.23 585.25,358.21"/>
    </edge>
    <edge id=":INEJUN1_0" function="internal">
        <lane id=":INEJUN1_0_0" index="0" speed="13.90" length="0.29" width="3.50" shape="609.74,353.03 610.06,353.02"/>
        <lane id=":INEJUN1_0_1" index="1" speed="13.90" length="0.29" width="3.50" shape="609.97,356.63 610.23,356.61"/>
    </edge>
    <edge id=":INEJUN10_0" function="internal">
        <lane id=":INEJUN10_0_0" index="0" speed="13.90" length="0.34" width="3.50" shape="635.53,342.47 635.57,342.44 635.60,342.41 635.62,342.39 635.65,342.35"/>
        <lane id=":INEJUN10_0_1" index="1" speed="13.90" length="0.34" width="3.50" shape="637.95,345.14 638.06,345.04 638.14,344.96 638.21,344.89 638.32,344.77"/>
    </edge>
    <edge id=":INEJUN11_0" function="internal">
        <lane id=":INEJUN11_0_0" index="0" speed="13.90" length="0.36" width="3.50" shape="637.93,339.85 637.96,339.81 637.99,339.79 638.01,339.76 638.04,339.72"/>
        <lane id=":INEJUN11_0_1" index="1" speed="13.90" length="0.36" width="3.50" shape="640.59,342.27 640.70,342.15 640.77,342.07 640.84,341.99 640.93,341.86"/>
    </edge>
    <edge id=":INEJUN12_0" function="internal">
        <lane id=":INEJUN12_0_0" index="0" speed="13.90" length="0.35" width="3.50" shape="640.05,337.00 640.08,336.96 640.10,336.93 640.12,336.90 640.14,336.86"/>
        <lane id=":INEJUN12_0_1" index="1" speed="13.90" length="0.35" width="3.50" shape="642.94,339.14 643.04,339.02 643.10,338.93 643.15,338.84 643.24,338.70"/>
    </edge>
    <edge id=":INEJUN13_0" function="internal">
        <lane id=":INEJUN13_0_0" index="0" speed="13.90" length="0.34" width="3.50" shape="641.88,333.95 641.90,333.91 641.92,333.88 641.93,333.85 641.96,333.81"/>
        <lane id=":INEJUN13_0_1" index="1" speed="13.90" length="0.34" width="3.50" shape="644.97,335.80 645.05,335.67 645.10,335.58 645.14,335.49 645.21,335.35"/>
    </edge>
    <edge id=":INEJUN14_0" function="internal">
        <lane id=":INEJUN14_0_0" index="0" speed="13.90" length="0.36" width="3.50" shape="643.41,330.75 643.43,330.70 643.44,330.67 643.46,330.64 643.47,330.59"/>
        <lane id=":INEJUN14_0_1" index="1" speed="13.90" length="0.36" width="3.50" shape="646.66,332.29 646.73,332.15 646.77,332.05 646.81,331.95 646.87,331.79"/>
    </edge>
    <edge id=":INEJUN15_0" function="internal">
        <lane id=":INEJUN15_0_0" index="0" speed="13.90" length="0.34" width="3.50" shape="644.61,327.41 644.62,327.36 644.63,327.33 644.64,327.29 644.66,327.25"/>
        <lane id=":INEJUN15_0_1" index="1" speed="13.90" length="0.34" width="3.50" shape="648.00,328.61 648.05,328.47 648.08,328.37 648.11,328.27 648.15,328.12"/>
    </edge>
    <edge id=":INEJUN16_0" function="internal">
        <lane id=":INEJUN16_0_0" index="0" speed="13.90" length="0.35" width="3.50" shape="645.48,323.96 645.49,323.91 645.50,323.88 645.51,323.84 645.52,323.79"/>
        <lane id=":INEJUN16_0_1" index="1" speed="13.90" length="0.35" width="3.50" shape="648.97,324.84 649.01,324.69 649.03,324.58 649.05,324.48 649.08,324.32"/>
    </edge>
    <edge id=":INEJUN17_0" function="internal">
        <lane id=":INEJUN17_0_0" index="0" speed="13.90" length="0.35" width="3.50" shape="646.01,320.45 646.02,320.40 646.03,320.36 646.03,320.33 646.03,320.28"/>
        <lane id=":INEJUN17_0_1" index="1" speed="13.90" length="0.35" width="3.50" shape="649.57,320.98 649.60,320.82 649.61,320.72 649.62,320.61 649.63,320.45"/>
    </edge>
    <edge id=":INEJUN18_0" function="internal">
        <lane id=":INEJUN18_0_0" index="0" speed="13.90" length="0.34" width="3.50" shape="646.19,316.90 646.20,316.85 646.20,316.82 646.20,316.79 646.19,316.74"/>
        <lane id=":INEJUN18_0_1" index="1" speed="13.90" length="0.34" width="3.50" shape="649.79,317.08 649.80,316.93 649.80,316.82 649.80,316.72 649.79,316.56"/>
    </edge>
    <edge id=":INEJUN19_0" function="internal">
        <lane id=":INEJUN19_0_0" index="0" speed="13.90" length="0.36" width="3.50" shape="646.03,313.35 646.03,313.30 646.03,313.27 646.02,313.23 646.01,313.18"/>
        <lane id=":INEJUN19_0_1" index="1" speed="13.90" length="0.36" width="3.50" shape="649.63,313.18 649.62,313.02 649.61,312.91 649.60,312.81 649.57,312.65"/>
    </edge>
    <edge id=":INEJUN20_0" function="internal">
        <lane id=":INEJUN20_0_0" index="0" speed="13.90" length="0.35" width="3.50" shape="645.52,309.85 645.51,309.80 645.50,309.76 645.49,309.73 645.48,309.68"/>
        <lane id=":INEJUN20_0_1" index="1" speed="13.90" length="0.35" width="3.50" shape="649.08,309.32 649.05,309.16 649.03,309.06 649.01,308.95 648.97,308.80"/>
    </edge>
    <edge id=":INEJUN21_0" function="internal">
        <lane id=":INEJUN21_0_0" index="0" speed="13.90" length="0.34" width="3.50" shape="644.66,306.39 644.64,306.35 644.63,306.31 644.62,306.28 644.61,306.23"/>
        <lane id=":INEJUN21_0_1" index="1" speed="13.90" length="0.34" width="3.50" shape="648.15,305.52 648.11,305.37 648.08,305.27 648.05,305.17 648.00,305.03"/>
    </edge>
    <edge id=":INEJUN22_0" function="internal">
        <lane id=":INEJUN22_0_0" index="0" speed="13.90" length="0.36" width="3.50" shape="643.47,303.05 643.46,303.00 643.44,302.97 643.43,302.94 643.41,302.89"/>
        <lane id=":INEJUN22_0_1" index="1" speed="13.90" length="0.36" width="3.50" shape="646.87,301.85 646.81,301.69 646.77,301.59 646.73,301.49 646.66,301.35"/>
    </edge>
    <edge id=":INEJUN23_0" function="internal">
        <lane id=":INEJUN23_0_0" index="0" speed="13.90" length="0.34" width="3.50" shape="641.96,299.83 641.93,299.79 641.92,299.76 641.90,299.73 641.88,299.69"/>
        <lane id=":INEJUN23_0_1" index="1" speed="13.90" length="0.34" width="3.50" shape="645.21,298.29 645.14,298.15 645.10,298.06 645.05,297.97 644.97,297.84"/>
    </edge>
    <edge id=":INEJUN24_0" function="internal">
        <lane id=":INEJUN24_0_0" index="0" speed="13.90" length="0.36" width="3.50" shape="640.15,296.79 640.12,296.74 640.10,296.71 640.08,296.68 640.05,296.64"/>
        <lane id=":INEJUN24_0_1" index="1" speed="13.90" length="0.36" width="3.50" shape="643.24,294.94 643.15,294.80 643.10,294.71 643.03,294.62 642.94,294.49"/>
    </edge>
    <edge id=":INEJUN25_0" function="internal">
        <lane id=":INEJUN25_0_0" index="0" speed="13.90" length="0.34" width="3.50" shape="638.03,293.92 638.00,293.88 637.98,293.85 637.95,293.83 637.92,293.79"/>
        <lane id=":INEJUN25_0_1" index="1" speed="13.90" length="0.34" width="3.50" shape="640.92,291.77 640.83,291.65 640.76,291.57 640.69,291.49 640.59,291.37"/>
    </edge>
    <edge id=":INEJUN26_0" function="internal">
        <lane id=":INEJUN26_0_0" index="0" speed="13.90" length="0.35" width="3.50" shape="635.65,291.29 635.62,291.25 635.59,291.23 635.57,291.20 635.53,291.17"/>
        <lane id=":INEJUN26_0_1" index="1" speed="13.90" length="0.35" width="3.50" shape="638.32,288.87 638.22,288.76 638.14,288.68 638.06,288.60 637.95,288.50"/>
    </edge>
    <edge id=":INEJUN27_0" function="internal">
        <lane id=":INEJUN27_0_0" index="0" speed="13.90" length="0.34" width="3.50" shape="633.03,288.90 632.99,288.87 632.97,288.84 632.94,288.82 632.90,288.79"/>
        <lane id=":INEJUN27_0_1" index="1" speed="13.90" length="0.34" width="3.50" shape="635.45,286.23 635.33,286.13 635.25,286.06 635.17,285.99 635.05,285.90"/>
    </edge>
    <edge id=":INEJUN28_0" function="internal">
        <lane id=":INEJUN28_0_0" index="0" speed="13.90" length="0.36" width="3.50" shape="630.18,286.77 630.14,286.74 630.11,286.72 630.08,286.70 630.03,286.67"/>
        <lane id=":INEJUN28_0_1" index="1" speed="13.90" length="0.36" width="3.50" shape="632.33,283.88 632.20,283.79 632.11,283.72 632.02,283.67 631.88,283.58"/>
    </edge>
    <edge id=":INEJUN29_0" function="internal">
        <lane id=":INEJUN29_0_0" index="0" speed="13.90" length="0.34" width="3.50" shape="627.13,284.94 627.09,284.92 627.06,284.90 627.03,284.89 626.99,284.86"/>
        <lane id=":INEJUN29_0_1" index="1" speed="13.90" length="0.34" width="3.50" shape="628.98,281.85 628.85,281.77 628.76,281.72 628.67,281.68 628.53,281.61"/>
    </edge>
    <edge id=":INEJUN3_0" function="internal">
        <lane id=":INEJUN3_0_0" index="0" speed="13.90" length="0.35" width="3.50" shape="613.47,352.85 613.52,352.85 613.55,352.85 613.59,352.84 613.64,352.83"/>
        <lane id=":INEJUN3_0_1" index="1" speed="13.90" length="0.35" width="3.50" shape="613.64,356.45 613.80,356.44 613.91,356.43 614.01,356.42 614.17,356.39"/>
    </edge>
    <edge id=":INEJUN30_0" function="internal">
        <lane id=":INEJUN30_0_0" index="0" speed="13.90" length="0.36" width="3.50" shape="623.93,283.41 623.88,283.39 623.85,283.38 623.82,283.36 623.77,283.35"/>
        <lane id=":INEJUN30_0_1" index="1" speed="13.90" length="0.36" width="3.50" shape="625.47,280.16 625.33,280.09 625.23,280.05 625.13,280.01 624.97,279.95"/>
    </edge>
    <edge id=":INEJUN31_0" function="internal">
        <lane id=":INEJUN31_0_0" index="0" speed="13.90" length="0.34" width="3.50" shape="620.59,282.21 620.54,282.20 620.51,282.19 620.47,282.18 620.43,282.16"/>
        <lane id=":INEJUN31_0_1" index="1" speed="13.90" length="0.34" width="3.50" shape="621.79,278.82 621.65,278.77 621.55,278.74 621.45,278.71 621.30,278.67"/>
    </edge>
    <edge id=":INEJUN32_0" function="internal">
        <lane id=":INEJUN32_0_0" index="0" speed="13.90" length="0.35" width="3.50" shape="617.14,281.34 617.09,281.33 617.06,281.32 617.02,281.31 616.97,281.30"/>
        <lane id=":INEJUN32_0_1" index="1" speed="13.90" length="0.35" width="3.50" shape="618.02,277.85 617.87,277.81 617.76,277.79 617.66,277.77 617.50,277.74"/>
    </edge>
    <edge id=":INEJUN33_0" function="internal">
        <lane id=":INEJUN33_0_0" index="0" speed="13.90" length="0.35" width="3.50" shape="613.63,280.81 613.58,280.80 613.54,280.79 613.51,280.79 613.46,280.79"/>
        <lane id=":INEJUN33_0_1" index="1" speed="13.90" length="0.35" width="3.50" shape="614.16,277.25 614.00,277.22 613.90,277.21 613.79,277.20 613.63,277.19"/>
    </edge>
    <edge id=":INEJUN34_0" function="internal">
        <lane id=":INEJUN34_0_0" index="0" speed="13.90" length="0.27" width="3.50" shape="610.05,280.62 609.87,280.62"/>
        <lane id=":INEJUN34_0_1" index="1" speed="13.90" length="0.27" width="3.50" shape="610.22,277.03 609.87,277.02"/>
    </edge>
    <edge id=":INEJUN35_0" function="internal">
        <lane id=":INEJUN35_0_0" index="0" speed="13.90" length="0.27" width="3.50" shape="553.73,280.62 553.55,280.62"/>
        <lane id=":INEJUN35_0_1" index="1" speed="13.90" length="0.27" width="3.50" shape="553.73,277.02 553.38,277.03"/>
    </edge>
    <edge id=":INEJUN36_0" function="internal">
        <lane id=":INEJUN36_0_0" index="0" speed="13.90" length="0.35" width="3.50" shape="550.14,280.79 550.09,280.79 550.06,280.79 550.02,280.80 549.97,280.81"/>
        <lane id=":INEJUN36_0_1" index="1" speed="13.90" length="0.35" width="3.50" shape="549.97,277.19 549.81,277.20 549.70,277.21 549.60,277.22 549.44,277.25"/>
    </edge>
    <edge id=":INEJUN37_0" function="internal">
        <lane id=":INEJUN37_0_0" index="0" speed="13.90" length="0.35" width="3.50" shape="546.63,281.30 546.58,281.31 546.54,281.32 546.51,281.33 546.46,281.34"/>
        <lane id=":INEJUN37_0_1" index="1" speed="13.90" length="0.35" width="3.50" shape="546.10,277.74 545.94,277.77 545.84,277.79 545.73,277.81 545.58,277.85"/>
    </edge>
    <edge id=":INEJUN38_0" function="internal">
        <lane id=":INEJUN38_0_0" index="0" speed="13.90" length="0.34" width="3.50" shape="543.17,282.16 543.13,282.18 543.09,282.19 543.06,282.20 543.01,282.21"/>
        <lane id=":INEJUN38_0_1" index="1" speed="13.90" length="0.34" width="3.50" shape="542.30,278.67 542.15,278.71 542.05,278.74 541.95,278.77 541.81,278.82"/>
    </edge>
    <edge id=":INEJUN39_0" function="internal">
        <lane id=":INEJUN39_0_0" index="0" speed="13.90" length="0.36" width="3.50" shape="539.83,283.35 539.78,283.36 539.75,283.38 539.72,283.39 539.67,283.41"/>
        <lane id=":INEJUN39_0_1" index="1" speed="13.90" length="0.36" width="3.50" shape="538.63,279.95 538.47,280.01 538.37,280.05 538.27,280.09 538.13,280.16"/>
    </edge>
    <edge id=":INEJUN4_0" function="internal">
        <lane id=":INEJUN4_0_0" index="0" speed="13.90" length="0.35" width="3.50" shape="616.98,352.34 617.03,352.33 617.07,352.32 617.10,352.31 617.15,352.30"/>
        <lane id=":INEJUN4_0_1" index="1" speed="13.90" length="0.35" width="3.50" shape="617.51,355.90 617.67,355.87 617.77,355.85 617.88,355.83 618.03,355.79"/>
    </edge>
    <edge id=":INEJUN40_0" function="internal">
        <lane id=":INEJUN40_0_0" index="0" speed="13.90" length="0.34" width="3.50" shape="536.61,284.86 536.57,284.89 536.54,284.90 536.51,284.92 536.47,284.94"/>
        <lane id=":INEJUN40_0_1" index="1" speed="13.90" length="0.34" width="3.50" shape="535.07,281.61 534.93,281.68 534.84,281.72 534.75,281.77 534.62,281.85"/>
    </edge>
    <edge id=":INEJUN41_0" function="internal">
        <lane id=":INEJUN41_0_0" index="0" speed="13.90" length="0.36" width="3.50" shape="533.57,286.67 533.52,286.70 533.49,286.72 533.46,286.74 533.42,286.77"/>
        <lane id=":INEJUN41_0_1" index="1" speed="13.90" length="0.36" width="3.50" shape="531.72,283.58 531.58,283.67 531.49,283.72 531.40,283.79 531.27,283.88"/>
    </edge>
    <edge id=":INEJUN42_0" function="internal">
        <lane id=":INEJUN42_0_0" index="0" speed="13.90" length="0.34" width="3.50" shape="530.70,288.79 530.66,288.82 530.63,288.84 530.61,288.87 530.57,288.90"/>
        <lane id=":INEJUN42_0_1" index="1" speed="13.90" length="0.34" width="3.50" shape="528.55,285.90 528.43,285.99 528.35,286.06 528.27,286.13 528.15,286.23"/>
    </edge>
    <edge id=":INEJUN43_0" function="internal">
        <lane id=":INEJUN43_0_0" index="0" speed="13.90" length="0.35" width="3.50" shape="528.07,291.17 528.03,291.20 528.01,291.23 527.98,291.25 527.95,291.29"/>
        <lane id=":INEJUN43_0_1" index="1" speed="13.90" length="0.35" width="3.50" shape="525.65,288.50 525.54,288.60 525.46,288.68 525.38,288.76 525.28,288.87"/>
    </edge>
    <edge id=":INEJUN44_0" function="internal">
        <lane id=":INEJUN44_0_0" index="0" speed="13.90" length="0.34" width="3.50" shape="525.68,293.79 525.65,293.83 525.62,293.85 525.60,293.88 525.57,293.92"/>
        <lane id=":INEJUN44_0_1" index="1" speed="13.90" length="0.34" width="3.50" shape="523.01,291.37 522.91,291.49 522.84,291.57 522.77,291.65 522.68,291.77"/>
    </edge>
    <edge id=":INEJUN45_0" function="internal">
        <lane id=":INEJUN45_0_0" index="0" speed="13.90" length="0.36" width="3.50" shape="523.55,296.64 523.52,296.68 523.50,296.71 523.48,296.74 523.45,296.79"/>
        <lane id=":INEJUN45_0_1" index="1" speed="13.90" length="0.36" width="3.50" shape="520.66,294.49 520.57,294.62 520.50,294.71 520.45,294.80 520.36,294.94"/>
    </edge>
    <edge id=":INEJUN46_0" function="internal">
        <lane id=":INEJUN46_0_0" index="0" speed="13.90" length="0.34" width="3.50" shape="521.72,299.69 521.70,299.73 521.68,299.76 521.67,299.79 521.64,299.83"/>
        <lane id=":INEJUN46_0_1" index="1" speed="13.90" length="0.34" width="3.50" shape="518.63,297.84 518.55,297.97 518.50,298.06 518.46,298.15 518.39,298.29"/>
    </edge>
    <edge id=":INEJUN47_0" function="internal">
        <lane id=":INEJUN47_0_0" index="0" speed="13.90" length="0.36" width="3.50" shape="520.19,302.89 520.17,302.94 520.16,302.97 520.14,303.00 520.13,303.05"/>
        <lane id=":INEJUN47_0_1" index="1" speed="13.90" length="0.36" width="3.50" shape="516.94,301.35 516.87,301.49 516.83,301.59 516.79,301.69 516.73,301.85"/>
    </edge>
    <edge id=":INEJUN48_0" function="internal">
        <lane id=":INEJUN48_0_0" index="0" speed="13.90" length="0.34" width="3.50" shape="518.99,306.23 518.98,306.28 518.97,306.31 518.96,306.35 518.94,306.39"/>
        <lane id=":INEJUN48_0_1" index="1" speed="13.90" length="0.34" width="3.50" shape="515.60,305.03 515.55,305.17 515.52,305.27 515.49,305.37 515.45,305.52"/>
    </edge>
    <edge id=":INEJUN49_0" function="internal">
        <lane id=":INEJUN49_0_0" index="0" speed="13.90" length="0.35" width="3.50" shape="518.12,309.68 518.11,309.73 518.10,309.76 518.09,309.80 518.08,309.85"/>
        <lane id=":INEJUN49_0_1" index="1" speed="13.90" length="0.35" width="3.50" shape="514.63,308.80 514.59,308.95 514.57,309.06 514.55,309.16 514.52,309.32"/>
    </edge>
    <edge id=":INEJUN5_0" function="internal">
        <lane id=":INEJUN5_0_0" index="0" speed="13.90" length="0.34" width="3.50" shape="620.43,351.48 620.47,351.46 620.51,351.45 620.54,351.44 620.59,351.43"/>
        <lane id=":INEJUN5_0_1" index="1" speed="13.90" length="0.34" width="3.50" shape="621.31,354.97 621.45,354.93 621.55,354.90 621.65,354.87 621.79,354.82"/>
    </edge>
    <edge id=":INEJUN50_0" function="internal">
        <lane id=":INEJUN50_0_0" index="0" speed="13.90" length="0.35" width="3.50" shape="517.59,313.19 517.58,313.24 517.57,313.28 517.57,313.31 517.57,313.36"/>
        <lane id=":INEJUN50_0_1" index="1" speed="13.90" length="0.35" width="3.50" shape="514.03,312.66 514.00,312.82 513.99,312.92 513.98,313.03 513.97,313.19"/>
    </edge>
    <edge id=":INEJUN51_0" function="internal">
        <lane id=":INEJUN51_0_0" index="0" speed="13.90" length="0.27" width="3.50" shape="517.40,316.77 517.40,316.95"/>
        <lane id=":INEJUN51_0_1" index="1" speed="13.90" length="0.27" width="3.50" shape="513.81,316.60 513.80,316.95"/>
    </edge>
    <edge id=":INEJUN52_0" function="internal">
        <lane id=":INEJUN52_0_0" index="0" speed="13.90" length="0.10" width="3.50" shape="517.40,328.00 517.40,328.00"/>
        <lane id=":INEJUN52_0_1" index="1" speed="13.90" length="0.10" width="3.50" shape="513.80,328.00 513.80,328.00"/>
    </edge>
    <edge id=":INEJUN53_0" function="internal">
        <lane id=":INEJUN53_0_0" index="0" speed="13.90" length="0.10" width="3.50" shape="517.40,335.00 517.40,335.00"/>
        <lane id=":INEJUN53_0_1" index="1" speed="13.90" length="0.10" width="3.50" shape="513.80,335.00 513.80,335.00"/>
    </edge>
    <edge id=":INEJUN54_0" function="internal">
        <lane id=":INEJUN54_0_0" index="0" speed="13.90" length="0.10" width="3.50" shape="517.40,350.00 517.40,350.00"/>
        <lane id=":INEJUN54_0_1" index="1" speed="13.90" length="0.10" width="3.50" shape="513.80,350.00 513.80,350.00"/>
    </edge>
    <edge id=":INEJUN55_0" function="internal">
        <lane id=":INEJUN55_0_0" index="0" speed="13.90" length="0.35" width="3.50" shape="517.40,357.82 517.40,357.98 517.40,358.09 517.39,358.20 517.37,358.36"/>
        <lane id=":INEJUN55_0_1" index="1" speed="13.90" length="0.35" width="3.50" shape="513.80,357.82 513.80,357.87 513.80,357.91 513.80,357.95 513.79,358.00"/>
    </edge>
    <edge id=":INEJUN56_0" function="internal">
        <lane id=":INEJUN56_0_0" index="0" speed="13.90" length="0.29" width="3.50" shape="515.81,374.04 515.78,374.30"/>
        <lane id=":INEJUN56_0_1" index="1" speed="13.90" length="0.29" width="3.50" shape="512.22,373.68 512.19,373.99"/>
    </edge>
    <edge id=":INEJUN6_0" function="internal">
        <lane id=":INEJUN6_0_0" index="0" speed="13.90" length="0.36" width="3.50" shape="623.77,350.29 623.82,350.28 623.85,350.26 623.88,350.25 623.93,350.23"/>
        <lane id=":INEJUN6_0_1" index="1" speed="13.90" length="0.36" width="3.50" shape="624.98,353.69 625.13,353.63 625.23,353.59 625.33,353.55 625.47,353.48"/>
    </edge>
    <edge id=":INEJUN7_0" function="internal">
        <lane id=":INEJUN7_0_0" index="0" speed="13.90" length="0.35" width="3.50" shape="626.99,348.78 627.04,348.76 627.07,348.74 627.10,348.72 627.14,348.70"/>
        <lane id=":INEJUN7_0_1" index="1" speed="13.90" length="0.35" width="3.50" shape="628.53,352.03 628.67,351.96 628.77,351.92 628.86,351.86 629.00,351.78"/>
    </edge>
    <edge id=":INEJUN8_0" function="internal">
        <lane id=":INEJUN8_0_0" index="0" speed="13.90" length="0.34" width="3.50" shape="630.04,346.96 630.08,346.93 630.11,346.91 630.14,346.89 630.18,346.86"/>
        <lane id=":INEJUN8_0_1" index="1" speed="13.90" length="0.34" width="3.50" shape="631.89,350.04 632.02,349.96 632.11,349.91 632.19,349.85 632.32,349.76"/>
    </edge>
    <edge id=":INEJUN9_0" function="internal">
        <lane id=":INEJUN9_0_0" index="0" speed="13.90" length="0.35" width="3.50" shape="632.90,344.85 632.94,344.82 632.97,344.80 632.99,344.77 633.03,344.74"/>
        <lane id=":INEJUN9_0_1" index="1" speed="13.90" length="0.35" width="3.50" shape="635.04,347.74 635.17,347.65 635.25,347.58 635.33,347.51 635.45,347.41"/>
    </edge>
    <edge id=":INNW1_0" function="internal">
        <lane id=":INNW1_0_0" index="0" speed="13.90" length="2.27" width="3.50" shape="586.50,184.43 585.00,187.93"/>
        <lane id=":INNW1_0_1" index="1" speed="13.90" length="2.27" width="3.50" shape="586.50,184.43 585.00,184.33"/>
        <lane id=":INNW1_0_2" index="2" speed="13.90" length="2.27" width="3.50" shape="586.50,180.83 585.00,180.73"/>
    </edge>
    <edge id=":INNW1.0_0" function="internal">
        <lane id=":INNW1.0_0_0" index="0" speed="13.90" length="1.50" width="3.50" shape="584.99,184.33 583.49,184.43"/>
        <lane id=":INNW1.0_0_1" index="1" speed="13.90" length="1.50" width="3.50" shape="584.99,180.73 583.49,180.83"/>
    </edge>
    <edge id=":INNW2_0" function="internal">
        <lane id=":INNW2_0_0" index="0" speed="13.90" length="3.12" width="3.50" shape="526.15,186.24 523.69,187.93"/>
        <lane id=":INNW2_0_1" index="1" speed="13.90" length="3.12" width="3.50" shape="526.46,182.65 523.69,184.33"/>
    </edge>
    <edge id=":INNW2_2" function="internal">
        <lane id=":INNW2_2_0" index="0" speed="13.90" length="2.78" width="3.50" shape="526.31,184.43 523.69,184.33"/>
        <lane id=":INNW2_2_1" index="1" speed="13.90" length="2.78" width="3.50" shape="526.62,180.83 523.69,180.73"/>
    </edge>
    <edge id=":INSE1_0" function="internal">
        <lane id=":INSE1_0_0" index="0" speed="13.90" length="2.27" width="3.50" shape="413.50,361.57 415.00,358.07"/>
        <lane id=":INSE1_0_1" index="1" speed="13.90" length="2.27" width="3.50" shape="413.50,361.57 415.00,361.67"/>
        <lane id=":INSE1_0_2" index="2" speed="13.90" length="2.27" width="3.50" shape="413.50,365.17 415.00,365.27"/>
    </edge>
    <edge id=":INSE1.0_0" function="internal">
        <lane id=":INSE1.0_0_0" index="0" speed="13.90" length="1.50" width="3.50" shape="415.01,361.67 416.51,361.57"/>
        <lane id=":INSE1.0_0_1" index="1" speed="13.90" length="1.50" width="3.50" shape="415.01,365.27 416.51,365.17"/>
    </edge>
    <edge id=":INSE2_0" function="internal">
        <lane id=":INSE2_0_0" index="0" speed="13.90" length="3.12" width="3.50" shape="473.85,359.76 476.31,358.07"/>
        <lane id=":INSE2_0_1" index="1" speed="13.90" length="3.12" width="3.50" shape="473.54,363.35 476.31,361.67"/>
    </edge>
    <edge id=":INSE2_2" function="internal">
        <lane id=":INSE2_2_0" index="0" speed="13.90" length="2.78" width="3.50" shape="473.69,361.57 476.31,361.67"/>
        <lane id=":INSE2_2_1" index="1" speed="13.90" length="2.78" width="3.50" shape="473.38,365.17 476.31,365.27"/>
    </edge>
    <edge id=":INWJUN0_0" function="internal">
        <lane id=":INWJUN0_0_0" index="0" speed="13.90" length="0.27" width="3.50" shape="415.29,191.36 414.98,191.39"/>
        <lane id=":INWJUN0_0_1" index="1" speed="13.90" length="0.27" width="3.50" shape="414.98,187.77 414.75,187.79"/>
    </edge>
    <edge id=":INWJUN1_0" function="internal">
        <lane id=":INWJUN1_0_0" index="0" speed="13.90" length="0.29" width="3.50" shape="390.26,192.97 389.94,192.98"/>
        <lane id=":INWJUN1_0_1" index="1" speed="13.90" length="0.29" width="3.50" shape="390.03,189.37 389.77,189.39"/>
    </edge>
    <edge id=":INWJUN10_0" function="internal">
        <lane id=":INWJUN10_0_0" index="0" speed="13.90" length="0.34" width="3.50" shape="364.47,203.53 364.43,203.56 364.40,203.59 364.38,203.61 364.35,203.65"/>
        <lane id=":INWJUN10_0_1" index="1" speed="13.90" length="0.34" width="3.50" shape="362.05,200.86 361.94,200.96 361.86,201.04 361.79,201.11 361.68,201.23"/>
    </edge>
    <edge id=":INWJUN11_0" function="internal">
        <lane id=":INWJUN11_0_0" index="0" speed="13.90" length="0.36" width="3.50" shape="362.07,206.15 362.04,206.19 362.01,206.21 361.99,206.24 361.96,206.28"/>
        <lane id=":INWJUN11_0_1" index="1" speed="13.90" length="0.36" width="3.50" shape="359.41,203.73 359.30,203.85 359.23,203.93 359.16,204.01 359.07,204.14"/>
    </edge>
    <edge id=":INWJUN12_0" function="internal">
        <lane id=":INWJUN12_0_0" index="0" speed="13.90" length="0.35" width="3.50" shape="359.95,209.00 359.92,209.04 359.90,209.07 359.88,209.10 359.86,209.14"/>
        <lane id=":INWJUN12_0_1" index="1" speed="13.90" length="0.35" width="3.50" shape="357.06,206.86 356.96,206.98 356.90,207.07 356.85,207.16 356.76,207.30"/>
    </edge>
    <edge id=":INWJUN13_0" function="internal">
        <lane id=":INWJUN13_0_0" index="0" speed="13.90" length="0.34" width="3.50" shape="358.12,212.05 358.10,212.09 358.08,212.12 358.07,212.15 358.04,212.19"/>
        <lane id=":INWJUN13_0_1" index="1" speed="13.90" length="0.34" width="3.50" shape="355.03,210.20 354.95,210.33 354.90,210.42 354.86,210.51 354.79,210.65"/>
    </edge>
    <edge id=":INWJUN14_0" function="internal">
        <lane id=":INWJUN14_0_0" index="0" speed="13.90" length="0.36" width="3.50" shape="356.59,215.25 356.57,215.30 356.56,215.33 356.54,215.36 356.53,215.41"/>
        <lane id=":INWJUN14_0_1" index="1" speed="13.90" length="0.36" width="3.50" shape="353.34,213.71 353.27,213.85 353.23,213.95 353.19,214.05 353.13,214.21"/>
    </edge>
    <edge id=":INWJUN15_0" function="internal">
        <lane id=":INWJUN15_0_0" index="0" speed="13.90" length="0.34" width="3.50" shape="355.39,218.59 355.38,218.64 355.37,218.67 355.36,218.71 355.34,218.75"/>
        <lane id=":INWJUN15_0_1" index="1" speed="13.90" length="0.34" width="3.50" shape="352.00,217.39 351.95,217.53 351.92,217.63 351.89,217.73 351.85,217.88"/>
    </edge>
    <edge id=":INWJUN16_0" function="internal">
        <lane id=":INWJUN16_0_0" index="0" speed="13.90" length="0.35" width="3.50" shape="354.52,222.04 354.51,222.09 354.50,222.12 354.49,222.16 354.48,222.21"/>
        <lane id=":INWJUN16_0_1" index="1" speed="13.90" length="0.35" width="3.50" shape="351.03,221.16 350.99,221.31 350.97,221.42 350.95,221.52 350.92,221.68"/>
    </edge>
    <edge id=":INWJUN17_0" function="internal">
        <lane id=":INWJUN17_0_0" index="0" speed="13.90" length="0.35" width="3.50" shape="353.99,225.55 353.98,225.60 353.97,225.64 353.97,225.67 353.97,225.72"/>
        <lane id=":INWJUN17_0_1" index="1" speed="13.90" length="0.35" width="3.50" shape="350.43,225.02 350.40,225.18 350.39,225.28 350.38,225.39 350.37,225.55"/>
    </edge>
    <edge id=":INWJUN18_0" function="internal">
        <lane id=":INWJUN18_0_0" index="0" speed="13.90" length="0.34" width="3.50" shape="353.81,229.10 353.80,229.15 353.80,229.18 353.80,229.21 353.81,229.26"/>
        <lane id=":INWJUN18_0_1" index="1" speed="13.90" length="0.34" width="3.50" shape="350.21,228.92 350.20,229.07 350.20,229.18 350.20,229.28 350.21,229.44"/>
    </edge>
    <edge id=":INWJUN19_0" function="internal">
        <lane id=":INWJUN19_0_0" index="0" speed="13.90" length="0.36" width="3.50" shape="353.97,232.65 353.97,232.70 353.97,232.73 353.98,232.77 353.99,232.82"/>
        <lane id=":INWJUN19_0_1" index="1" speed="13.90" length="0.36" width="3.50" shape="350.37,232.82 350.38,232.98 350.39,233.09 350.40,233.19 350.43,233.35"/>
    </edge>
    <edge id=":INWJUN20_0" function="internal">
        <lane id=":INWJUN20_0_0" index="0" speed="13.90" length="0.35" width="3.50" shape="354.48,236.15 354.49,236.20 354.50,236.24 354.51,236.27 354.52,236.32"/>
        <lane id=":INWJUN20_0_1" index="1" speed="13.90" length="0.35" width="3.50" shape="350.92,236.68 350.95,236.84 350.97,236.94 350.99,237.05 351.03,237.20"/>
    </edge>