<?xml version="1.0" encoding="UTF-8"?>

<!-- generated on Fri Nov  5 11:30:42 2021 by SUMO netconvert Version 0.30.0
-->

<net version="0.27" xmlns:xsi="http://www.w3.org/2001/XMLSchema-instance" xsi:noNamespaceSchemaLocation="http://sumo.dlr.de/xsd/net_file.xsd">

    <location netOffset="105.00,105.00" convBoundary="0.00,0.00,210.00,210.00" origBoundary="-105.00,-105.00,105.00,105.00" projParameter="!"/>

    <edge id=":16_0" function="internal">
        <lane id=":16_0_0" index="0" speed="13.90" length="4.09" width="5.38" shape="141.79,70.75 141.63,69.64 141.15,68.85 140.36,68.37 139.25,68.21"/>
    </edge>
    <edge id=":16_1" function="internal">
        <lane id=":16_1_0" index="0" speed="13.90" length="21.50" width="5.38" shape="141.79,70.75 142.21,49.25"/>
        <lane id=":16_1_1" index="1" speed="13.90" length="21.50" width="5.38" shape="147.26,70.75 147.69,49.25"/>
    </edge>
    <edge id=":16_3" function="internal">
        <lane id=":16_3_0" index="0" speed="13.90" length="22.35" width="5.38" shape="147.26,70.75 148.11,64.41 150.63,59.98 154.85,57.45 160.75,56.83"/>
    </edge>
    <edge id=":16_4" function="internal">
        <lane id=":16_4_0" index="0" speed="13.90" length="8.00" width="5.38" shape="147.26,70.75 148.63,68.70 150.00,68.01 151.37,68.70 152.74,70.75"/>
    </edge>
    <edge id=":16_5" function="internal">
        <lane id=":16_5_0" index="0" speed="13.90" length="4.48" width="5.38" shape="160.75,67.79 159.64,67.93 158.85,68.47 158.37,69.41 158.21,70.75"/>
    </edge>
    <edge id=":16_6" function="internal">
        <lane id=":16_6_0" index="0" speed="13.90" length="21.50" width="5.38" shape="160.75,67.79 139.25,68.21"/>
        <lane id=":16_6_1" index="1" speed="13.90" length="21.50" width="5.38" shape="160.75,62.31 139.25,62.74"/>
    </edge>
    <edge id=":16_8" function="internal">
        <lane id=":16_8_0" index="0" speed="13.90" length="8.56" width="5.38" shape="160.75,62.31 155.27,61.27 152.75,59.68"/>
    </edge>
    <edge id=":16_9" function="internal">
        <lane id=":16_9_0" index="0" speed="13.90" length="4.00" width="5.38" shape="160.75,62.31 158.69,60.94 158.01,59.57"/>
    </edge>
    <edge id=":16_20" function="internal">
        <lane id=":16_20_0" index="0" speed="13.90" length="12.08" width="5.38" shape="152.75,59.68 151.26,58.74 148.74,54.73 147.69,49.25"/>
    </edge>
    <edge id=":16_21" function="internal">
        <lane id=":16_21_0" index="0" speed="13.90" length="4.00" width="5.38" shape="158.01,59.57 158.69,58.20 160.75,56.83"/>
    </edge>
    <edge id=":16_10" function="internal">
        <lane id=":16_10_0" index="0" speed="13.90" length="3.31" width="5.38" shape="158.65,49.25 158.82,50.13 159.23,50.77 159.87,51.18 160.75,51.35"/>
    </edge>
    <edge id=":16_11" function="internal">
        <lane id=":16_11_0" index="0" speed="13.90" length="21.50" width="5.38" shape="158.65,49.25 158.21,70.75"/>
        <lane id=":16_11_1" index="1" speed="13.90" length="21.50" width="5.38" shape="153.17,49.25 152.74,70.75"/>
    </edge>
    <edge id=":16_13" function="internal">
        <lane id=":16_13_0" index="0" speed="13.90" length="22.35" width="5.38" shape="153.17,49.25 152.55,55.15 150.02,59.37 145.59,61.89 139.25,62.74"/>
    </edge>
    <edge id=":16_14" function="internal">
        <lane id=":16_14_0" index="0" speed="13.90" length="8.01" width="5.38" shape="153.17,49.25 151.80,51.31 150.43,51.99 149.06,51.31 147.69,49.25"/>
    </edge>
    <edge id=":16_15" function="internal">
        <lane id=":16_15_0" index="0" speed="13.90" length="4.48" width="5.38" shape="139.25,51.79 140.59,51.63 141.53,51.15 142.07,50.36 142.21,49.25"/>
    </edge>
    <edge id=":16_16" function="internal">
        <lane id=":16_16_0" index="0" speed="13.90" length="21.50" width="5.38" shape="139.25,51.79 160.75,51.35"/>
        <lane id=":16_16_1" index="1" speed="13.90" length="21.50" width="5.38" shape="139.25,57.26 160.75,56.83"/>
    </edge>
    <edge id=":16_18" function="internal">
        <lane id=":16_18_0" index="0" speed="13.90" length="9.40" width="5.38" shape="139.25,57.26 145.15,58.11 148.10,59.87"/>
    </edge>
    <edge id=":16_19" function="internal">
        <lane id=":16_19_0" index="0" speed="13.90" length="4.00" width="5.38" shape="139.25,57.26 141.30,58.63 141.99,60.00"/>
    </edge>
    <edge id=":16_22" function="internal">
        <lane id=":16_22_0" index="0" speed="13.90" length="12.35" width="5.38" shape="148.10,59.87 149.37,60.63 151.89,64.85 152.74,70.75"/>
    </edge>
    <edge id=":16_23" function="internal">
        <lane id=":16_23_0" index="0" speed="13.90" length="4.00" width="5.38" shape="141.99,60.00 141.30,61.37 139.25,62.74"/>
    </edge>
    <edge id=":17_0" function="internal">
        <lane id=":17_0_0" index="0" speed="13.90" length="3.31" width="5.38" shape="51.35,160.75 51.18,159.87 50.77,159.23 50.13,158.82 49.25,158.65"/>
    </edge>
    <edge id=":17_1" function="internal">
        <lane id=":17_1_0" index="0" speed="13.90" length="21.50" width="5.38" shape="51.35,160.75 51.79,139.25"/>
        <lane id=":17_1_1" index="1" speed="13.90" length="21.50" width="5.38" shape="56.83,160.75 57.26,139.25"/>
    </edge>
    <edge id=":17_3" function="internal">
        <lane id=":17_3_0" index="0" speed="13.90" length="10.54" width="5.38" shape="56.83,160.75 57.45,154.85 59.82,150.90"/>
    </edge>
    <edge id=":17_4" function="internal">
        <lane id=":17_4_0" index="0" speed="13.90" length="4.12" width="5.38" shape="56.83,160.75 58.20,158.69 59.57,158.01 59.68,158.06"/>
    </edge>
    <edge id=":17_20" function="internal">
        <lane id=":17_20_0" index="0" speed="13.90" length="11.81" width="5.38" shape="59.82,150.90 59.98,150.63 64.41,148.11 70.75,147.26"/>
    </edge>
    <edge id=":17_21" function="internal">
        <lane id=":17_21_0" index="0" speed="13.90" length="3.88" width="5.38" shape="59.68,158.06 60.94,158.69 62.31,160.75"/>
    </edge>
    <edge id=":17_5" function="internal">
        <lane id=":17_5_0" index="0" speed="13.90" length="4.48" width="5.38" shape="70.75,158.21 69.41,158.37 68.47,158.85 67.93,159.64 67.79,160.75"/>
    </edge>
    <edge id=":17_6" function="internal">
        <lane id=":17_6_0" index="0" speed="13.90" length="21.50" width="5.38" shape="70.75,158.21 49.25,158.65"/>
        <lane id=":17_6_1" index="1" speed="13.90" length="21.50" width="5.38" shape="70.75,152.74 49.25,153.17"/>
    </edge>
    <edge id=":17_8" function="internal">
        <lane id=":17_8_0" index="0" speed="13.90" length="21.75" width="5.38" shape="70.75,152.74 64.85,151.89 60.63,149.37 58.11,145.15 57.26,139.25"/>
    </edge>
    <edge id=":17_9" function="internal">
        <lane id=":17_9_0" index="0" speed="13.90" length="8.00" width="5.38" shape="70.75,152.74 68.70,151.37 68.01,150.00 68.70,148.63 70.75,147.26"/>
    </edge>
    <edge id=":17_10" function="internal">
        <lane id=":17_10_0" index="0" speed="13.90" length="4.09" width="5.38" shape="68.21,139.25 68.37,140.36 68.85,141.15 69.64,141.63 70.75,141.79"/>
    </edge>
    <edge id=":17_11" function="internal">
        <lane id=":17_11_0" index="0" speed="13.90" length="21.50" width="5.38" shape="68.21,139.25 67.79,160.75"/>
        <lane id=":17_11_1" index="1" speed="13.90" length="21.50" width="5.38" shape="62.74,139.25 62.31,160.75"/>
    </edge>
    <edge id=":17_13" function="internal">
        <lane id=":17_13_0" index="0" speed="13.90" length="10.73" width="5.38" shape="62.74,139.25 61.89,145.59 59.75,149.35"/>
    </edge>
    <edge id=":17_14" function="internal">
        <lane id=":17_14_0" index="0" speed="13.90" length="4.11" width="5.38" shape="62.74,139.25 61.37,141.30 60.00,141.99 59.90,141.94"/>
    </edge>
    <edge id=":17_22" function="internal">
        <lane id=":17_22_0" index="0" speed="13.90" length="11.62" width="5.38" shape="59.75,149.35 59.37,150.02 55.15,152.55 49.25,153.17"/>
    </edge>
    <edge id=":17_23" function="internal">
        <lane id=":17_23_0" index="0" speed="13.90" length="3.88" width="5.38" shape="59.90,141.94 58.63,141.30 57.26,139.25"/>
    </edge>
    <edge id=":17_15" function="internal">
        <lane id=":17_15_0" index="0" speed="13.90" length="4.48" width="5.38" shape="49.25,142.21 50.36,142.07 51.15,141.53 51.63,140.59 51.79,139.25"/>
    </edge>
    <edge id=":17_16" function="internal">
        <lane id=":17_16_0" index="0" speed="13.90" length="21.50" width="5.38" shape="49.25,142.21 70.75,141.79"/>
        <lane id=":17_16_1" index="1" speed="13.90" length="21.50" width="5.38" shape="49.25,147.69 70.75,147.26"/>
    </edge>
    <edge id=":17_18" function="internal">
        <lane id=":17_18_0" index="0" speed="13.90" length="20.64" width="5.38" shape="49.25,147.69 54.74,148.73 58.74,151.26 61.27,155.27 62.31,160.75"/>
    </edge>
    <edge id=":17_19" function="internal">
        <lane id=":17_19_0" index="0" speed="13.90" length="8.01" width="5.38" shape="49.25,147.69 51.31,149.06 51.99,150.43 51.31,151.80 49.25,153.17"/>
    </edge>
    <edge id=":18_0" function="internal">
        <lane id=":18_0_0" index="0" speed="13.90" length="0.13" width="5.38" shape="201.79,100.64 201.79,100.77"/>
        <lane id=":18_0_1" index="1" speed="13.90" length="0.13" width="5.38" shape="207.26,100.64 207.26,100.50"/>
    </edge>
    <edge id=":18_2" function="internal">
        <lane id=":18_2_0" index="0" speed="13.90" length="4.00" width="5.38" shape="207.26,100.64 208.63,98.58 210.00,97.90"/>
    </edge>
    <edge id=":18_6" function="internal">
        <lane id=":18_6_0" index="0" speed="13.90" length="4.00" width="5.38" shape="210.00,97.90 211.37,98.58 212.74,100.64"/>
    </edge>
    <edge id=":18_3" function="internal">
        <lane id=":18_3_0" index="0" speed="13.90" length="0.54" width="5.38" shape="218.20,99.96 218.21,100.64"/>
        <lane id=":18_3_1" index="1" speed="13.90" length="0.54" width="5.38" shape="212.73,100.23 212.74,100.64"/>
    </edge>
    <edge id=":18_5" function="internal">
        <lane id=":18_5_0" index="0" speed="13.90" length="4.00" width="5.38" shape="212.73,100.23 211.46,102.35 210.13,103.10"/>
    </edge>
    <edge id=":18_7" function="internal">
        <lane id=":18_7_0" index="0" speed="13.90" length="4.00" width="5.38" shape="210.13,103.10 208.73,102.48 207.26,100.50"/>
    </edge>
    <edge id=":19_0" function="internal">
        <lane id=":19_0_0" index="0" speed="13.90" length="0.54" width="5.38" shape="218.21,169.36 218.20,170.04"/>
        <lane id=":19_0_1" index="1" speed="13.90" length="0.54" width="5.38" shape="212.74,169.36 212.73,169.77"/>
    </edge>
    <edge id=":19_2" function="internal">
        <lane id=":19_2_0" index="0" speed="13.90" length="4.00" width="5.38" shape="212.74,169.36 211.37,171.42 210.00,172.10"/>
    </edge>
    <edge id=":19_6" function="internal">
        <lane id=":19_6_0" index="0" speed="13.90" length="4.00" width="5.38" shape="210.00,172.10 208.63,171.42 207.26,169.36"/>
    </edge>
    <edge id=":19_3" function="internal">
        <lane id=":19_3_0" index="0" speed="13.90" length="0.13" width="5.38" shape="201.79,169.23 201.79,169.36"/>
        <lane id=":19_3_1" index="1" speed="13.90" length="0.13" width="5.38" shape="207.26,169.50 207.26,169.36"/>
    </edge>
    <edge id=":19_5" function="internal">
        <lane id=":19_5_0" index="0" speed="13.90" length="4.00" width="5.38" shape="207.26,169.50 208.73,167.52 210.13,166.90"/>
    </edge>
    <edge id=":19_7" function="internal">
        <lane id=":19_7_0" index="0" speed="13.90" length="4.00" width="5.38" shape="210.13,166.90 211.46,167.65 212.73,169.77"/>
    </edge>
    <edge id=":20_0" function="internal">
        <lane id=":20_0_0" index="0" speed="13.90" length="0.54" width="5.38" shape="170.04,218.20 169.36,218.21"/>
        <lane id=":20_0_1" index="1" speed="13.90" length="0.54" width="5.38" shape="169.77,212.73 169.36,212.74"/>
    </edge>
    <edge id=":20_2" function="internal">
        <lane id=":20_2_0" index="0" speed="13.90" length="4.00" width="5.38" shape="169.77,212.73 167.65,211.46 166.90,210.13"/>
    </edge>
    <edge id=":20_6" function="internal">
        <lane id=":20_6_0" index="0" speed="13.90" length="4.00" width="5.38" shape="166.90,210.13 167.52,208.73 169.50,207.26"/>
    </edge>
    <edge id=":20_3" function="internal">
        <lane id=":20_3_0" index="0" speed="13.90" length="0.13" width="5.38" shape="169.36,201.79 169.23,201.79"/>
        <lane id=":20_3_1" index="1" speed="13.90" length="0.13" width="5.38" shape="169.36,207.26 169.50,207.26"/>
    </edge>
    <edge id=":20_5" function="internal">
        <lane id=":20_5_0" index="0" speed="13.90" length="4.00" width="5.38" shape="169.36,207.26 171.42,208.63 172.10,210.00"/>
    </edge>
    <edge id=":20_7" function="internal">
        <lane id=":20_7_0" index="0" speed="13.90" length="4.00" width="5.38" shape="172.10,210.00 171.42,211.37 169.36,212.74"/>
    </edge>
    <edge id=":21_0" function="internal">
        <lane id=":21_0_0" index="0" speed="13.90" length="0.54" width="5.38" shape="100.64,218.21 99.96,218.20"/>
        <lane id=":21_0_1" index="1" speed="13.90" length="0.54" width="5.38" shape="100.64,212.74 100.23,212.73"/>
    </edge>
    <edge id=":21_2" function="internal">
        <lane id=":21_2_0" index="0" speed="13.90" length="4.00" width="5.38" shape="100.64,212.74 98.58,211.37 97.90,210.00"/>
    </edge>
    <edge id=":21_6" function="internal">
        <lane id=":21_6_0" index="0" speed="13.90" length="4.00" width="5.38" shape="97.90,210.00 98.58,208.63 100.64,207.26"/>
    </edge>
    <edge id=":21_3" function="internal">
        <lane id=":21_3_0" index="0" speed="13.90" length="0.13" width="5.38" shape="100.77,201.79 100.64,201.79"/>
        <lane id=":21_3_1" index="1" speed="13.90" length="0.13" width="5.38" shape="100.50,207.26 100.64,207.26"/>
    </edge>
    <edge id=":21_5" function="internal">
        <lane id=":21_5_0" index="0" speed="13.90" length="4.00" width="5.38" shape="100.50,207.26 102.48,208.73 103.10,210.13"/>
    </edge>
    <edge id=":21_7" function="internal">
        <lane id=":21_7_0" index="0" speed="13.90" length="4.00" width="5.38" shape="103.10,210.13 102.35,211.46 100.23,212.73"/>
    </edge>
    <edge id=":22_0" function="internal">
        <lane id=":22_0_0" index="0" speed="13.90" length="0.54" width="5.38" shape="110.04,158.20 109.36,158.21"/>
        <lane id=":22_0_1" index="1" speed="13.90" length="0.54" width="5.38" shape="109.77,152.73 109.36,152.74"/>
    </edge>
    <edge id=":22_2" function="internal">
        <lane id=":22_2_0" index="0" speed="13.90" length="4.00" width="5.38" shape="109.77,152.73 107.65,151.46 106.90,150.13"/>
    </edge>
    <edge id=":22_6" function="internal">
        <lane id=":22_6_0" index="0" speed="13.90" length="4.00" width="5.38" shape="106.90,150.13 107.52,148.73 109.50,147.26"/>
    </edge>
    <edge id=":22_3" function="internal">
        <lane id=":22_3_0" index="0" speed="13.90" length="0.13" width="5.38" shape="109.36,141.79 109.23,141.79"/>
        <lane id=":22_3_1" index="1" speed="13.90" length="0.13" width="5.38" shape="109.36,147.26 109.50,147.26"/>
    </edge>
    <edge id=":22_5" function="internal">
        <lane id=":22_5_0" index="0" speed="13.90" length="4.00" width="5.38" shape="109.36,147.26 111.42,148.63 112.10,150.00"/>
    </edge>
    <edge id=":22_7" function="internal">
        <lane id=":22_7_0" index="0" speed="13.90" length="4.00" width="5.38" shape="112.10,150.00 111.42,151.37 109.36,152.74"/>
    </edge>
    <edge id=":23_0" function="internal">
        <lane id=":23_0_0" index="0" speed="13.90" length="0.54" width="5.38" shape="158.21,109.36 158.20,110.04"/>
        <lane id=":23_0_1" index="1" speed="13.90" length="0.54" width="5.38" shape="152.74,109.36 152.73,109.77"/>
    </edge>
    <edge id=":23_2" function="internal">
        <lane id=":23_2_0" index="0" speed="13.90" length="4.00" width="5.38" shape="152.74,109.36 151.37,111.42 150.00,112.10"/>
    </edge>
    <edge id=":23_6" function="internal">
        <lane id=":23_6_0" index="0" speed="13.90" length="4.00" width="5.38" shape="150.00,112.10 148.63,111.42 147.26,109.36"/>
    </edge>
    <edge id=":23_3" function="internal">
        <lane id=":23_3_0" index="0" speed="13.90" length="0.13" width="5.38" shape="141.79,109.23 141.79,109.36"/>
        <lane id=":23_3_1" index="1" speed="13.90" length="0.13" width="5.38" shape="147.26,109.50 147.26,109.36"/>
    </edge>
    <edge id=":23_5" function="internal">
        <lane id=":23_5_0" index="0" speed="13.90" length="4.00" width="5.38" shape="147.26,109.50 148.73,107.52 150.13,106.90"/>
    </edge>
    <edge id=":23_7" function="internal">
        <lane id=":23_7_0" index="0" speed="13.90" length="4.00" width="5.38" shape="150.13,106.90 151.46,107.65 152.73,109.77"/>
    </edge>
    <edge id=":24_0" function="internal">
        <lane id=":24_0_0" index="0" speed="13.90" length="0.13" width="5.38" shape="100.64,68.21 100.77,68.21"/>
        <lane id=":24_0_1" index="1" speed="13.90" length="0.13" width="5.38" shape="100.64,62.74 100.50,62.74"/>
    </edge>
    <edge id=":24_2" function="internal">
        <lane id=":24_2_0" index="0" speed="13.90" length="4.00" width="5.38" shape="100.64,62.74 98.58,61.37 97.90,60.00"/>
    </edge>
    <edge id=":24_6" function="internal">
        <lane id=":24_6_0" index="0" speed="13.90" length="4.00" width="5.38" shape="97.90,60.00 98.58,58.63 100.64,57.26"/>
    </edge>
    <edge id=":24_3" function="internal">
        <lane id=":24_3_0" index="0" speed="13.90" length="0.54" width="5.38" shape="99.96,51.80 100.64,51.79"/>
        <lane id=":24_3_1" index="1" speed="13.90" length="0.54" width="5.38" shape="100.23,57.27 100.64,57.26"/>
    </edge>
    <edge id=":24_5" function="internal">
        <lane id=":24_5_0" index="0" speed="13.90" length="4.00" width="5.38" shape="100.23,57.27 102.35,58.54 103.10,59.87"/>
    </edge>
    <edge id=":24_7" function="internal">
        <lane id=":24_7_0" index="0" speed="13.90" length="4.00" width="5.38" shape="103.10,59.87 102.48,61.27 100.50,62.74"/>
    </edge>
    <edge id=":25_0" function="internal">
        <lane id=":25_0_0" index="0" speed="13.90" length="0.54" width="5.38" shape="51.79,100.64 51.80,99.96"/>
        <lane id=":25_0_1" index="1" speed="13.90" length="0.54" width="5.38" shape="57.26,100.64 57.27,100.23"/>
    </edge>
    <edge id=":25_2" function="internal">
        <lane id=":25_2_0" index="0" speed="13.90" length="4.00" width="5.38" shape="57.26,100.64 58.63,98.58 60.00,97.90"/>
    </edge>
    <edge id=":25_6" function="internal">
        <lane id=":25_6_0" index="0" speed="13.90" length="4.00" width="5.38" shape="60.00,97.90 61.37,98.58 62.74,100.64"/>
    </edge>
    <edge id=":25_3" function="internal">
        <lane id=":25_3_0" index="0" speed="13.90" length="0.13" width="5.38" shape="68.21,100.77 68.21,100.64"/>
        <lane id=":25_3_1" index="1" speed="13.90" length="0.13" width="5.38" shape="62.74,100.50 62.74,100.64"/>
    </edge>
    <edge id=":25_5" function="internal">
        <lane id=":25_5_0" index="0" speed="13.90" length="4.00" width="5.38" shape="62.74,100.50 61.27,102.48 59.87,103.10"/>
    </edge>
    <edge id=":25_7" function="internal">
        <lane id=":25_7_0" index="0" speed="13.90" length="4.00" width="5.38" shape="59.87,103.10 58.54,102.35 57.27,100.23"/>
    </edge>
    <edge id=":26_0" function="internal">
        <lane id=":26_0_0" index="0" speed="13.90" length="0.13" width="5.38" shape="109.23,8.21 109.36,8.21"/>
        <lane id=":26_0_1" index="1" speed="13.90" length="0.13" width="5.38" shape="109.50,2.74 109.36,2.74"/>
    </edge>
    <edge id=":26_2" function="internal">
        <lane id=":26_2_0" index="0" speed="13.90" length="4.00" width="5.38" shape="109.50,2.74 107.52,1.27 106.90,-0.13"/>
    </edge>
    <edge id=":26_6" function="internal">
        <lane id=":26_6_0" index="0" speed="13.90" length="4.00" width="5.38" shape="106.90,-0.13 107.65,-1.46 109.77,-2.73"/>
    </edge>
    <edge id=":26_3" function="internal">
        <lane id=":26_3_0" index="0" speed="13.90" length="0.54" width="5.38" shape="109.36,-8.21 110.04,-8.20"/>
        <lane id=":26_3_1" index="1" speed="13.90" length="0.54" width="5.38" shape="109.36,-2.74 109.77,-2.73"/>
    </edge>
    <edge id=":26_5" function="internal">
        <lane id=":26_5_0" index="0" speed="13.90" length="4.00" width="5.38" shape="109.36,-2.74 111.42,-1.37 112.10,0.00"/>
    </edge>
    <edge id=":26_7" function="internal">
        <lane id=":26_7_0" index="0" speed="13.90" length="4.00" width="5.38" shape="112.10,0.00 111.42,1.37 109.36,2.74"/>
    </edge>
    <edge id=":27_0" function="internal">
        <lane id=":27_0_0" index="0" speed="13.90" length="0.13" width="5.38" shape="40.64,8.21 40.77,8.21"/>
        <lane id=":27_0_1" index="1" speed="13.90" length="0.13" width="5.38" shape="40.64,2.74 40.50,2.74"/>
    </edge>
    <edge id=":27_2" function="internal">
        <lane id=":27_2_0" index="0" speed="13.90" length="4.00" width="5.38" shape="40.64,2.74 38.58,1.37 37.90,0.00"/>
    </edge>
    <edge id=":27_6" function="internal">
        <lane id=":27_6_0" index="0" speed="13.90" length="4.00" width="5.38" shape="37.90,0.00 38.58,-1.37 40.64,-2.74"/>
    </edge>
    <edge id=":27_3" function="internal">
        <lane id=":27_3_0" index="0" speed="13.90" length="0.54" width="5.38" shape="39.96,-8.20 40.64,-8.21"/>
        <lane id=":27_3_1" index="1" speed="13.90" length="0.54" width="5.38" shape="40.23,-2.73 40.64,-2.74"/>
    </edge>
    <edge id=":27_5" function="internal">
        <lane id=":27_5_0" index="0" speed="13.90" length="4.00" width="5.38" shape="40.23,-2.73 42.35,-1.46 43.10,-0.13"/>
    </edge>
    <edge id=":27_7" function="internal">
        <lane id=":27_7_0" index="0" speed="13.90" length="4.00" width="5.38" shape="43.10,-0.13 42.48,1.27 40.50,2.74"/>
    </edge>
    <edge id=":28_0" function="internal">
        <lane id=":28_0_0" index="0" speed="13.90" length="0.54" width="5.38" shape="-8.21,40.64 -8.20,39.96"/>
        <lane id=":28_0_1" index="1" speed="13.90" length="0.54" width="5.38" shape="-2.74,40.64 -2.73,40.23"/>
    </edge>
    <edge id=":28_2" function="internal">
        <lane id=":28_2_0" index="0" speed="13.90" length="4.00" width="5.38" shape="-2.74,40.64 -1.37,38.58 -0.00,37.90"/>
    </edge>
    <edge id=":28_6" function="internal">
        <lane id=":28_6_0" index="0" speed="13.90" length="4.00" width="5.38" shape="-0.00,37.90 1.37,38.58 2.74,40.64"/>
    </edge>
    <edge id=":28_3" function="internal">
        <lane id=":28_3_0" index="0" speed="13.90" length="0.13" width="5.38" shape="8.21,40.77 8.21,40.64"/>
        <lane id=":28_3_1" index="1" speed="13.90" length="0.13" width="5.38" shape="2.74,40.50 2.74,40.64"/>
    </edge>
    <edge id=":28_5" function="internal">
        <lane id=":28_5_0" index="0" speed="13.90" length="4.00" width="5.38" shape="2.74,40.50 1.27,42.48 -0.13,43.10"/>
    </edge>
    <edge id=":28_7" function="internal">
        <lane id=":28_7_0" index="0" speed="13.90" length="4.00" width="5.38" shape="-0.13,43.10 -1.46,42.35 -2.73,40.23"/>
    </edge>
    <edge id=":29_0" function="internal">
        <lane id=":29_0_0" index="0" speed="13.90" length="0.54" width="5.38" shape="-8.20,110.04 -8.21,109.36"/>
        <lane id=":29_0_1" index="1" speed="13.90" length="0.54" width="5.38" shape="-2.73,109.77 -2.74,109.36"/>
    </edge>
    <edge id=":29_2" function="internal">
        <lane id=":29_2_0" index="0" speed="13.90" length="4.00" width="5.38" shape="-2.73,109.77 -1.46,107.65 -0.13,106.90"/>
    </edge>
    <edge id=":29_6" function="internal">
        <lane id=":29_6_0" index="0" speed="13.90" length="4.00" width="5.38" shape="-0.13,106.90 1.27,107.52 2.74,109.50"/>
    </edge>
    <edge id=":29_3" function="internal">
        <lane id=":29_3_0" index="0" speed="13.90" length="0.13" width="5.38" shape="8.21,109.36 8.21,109.23"/>
        <lane id=":29_3_1" index="1" speed="13.90" length="0.13" width="5.38" shape="2.74,109.36 2.74,109.50"/>
    </edge>
    <edge id=":29_5" function="internal">
        <lane id=":29_5_0" index="0" speed="13.90" length="4.00" width="5.38" shape="2.74,109.36 1.37,111.42 0.00,112.10"/>
    </edge>
    <edge id=":29_7" function="internal">
        <lane id=":29_7_0" index="0" speed="13.90" length="4.00" width="5.38" shape="0.00,112.10 -1.37,111.42 -2.74,109.36"/>
    </edge>

    <edge id="-0" from="17" to="29" priority="-1" shape="40.50,150.00 36.53,149.80 32.60,149.22 28.74,148.26 25.00,146.92 21.41,145.22 18.00,143.17 14.81,140.81 11.86,138.14 9.19,135.19 6.83,132.00 4.78,128.59 3.08,125.00 1.74,121.26 0.78,117.40 0.20,113.47 0.00,109.50">
        <lane id="-0_0" index="0" speed="13.90" length="80.55" width="5.38" shape="49.25,158.65 35.72,157.99 30.99,157.29 26.36,156.12 21.85,154.51 17.53,152.47 13.43,150.01 9.59,147.16 6.05,143.95 2.84,140.41 -0.01,136.57 -2.47,132.47 -4.51,128.15 -6.12,123.64 -7.29,119.01 -7.99,114.28 -8.20,110.04"/>
        <lane id="-0_1" index="1" speed="13.90" length="80.55" width="5.38" shape="49.25,153.17 36.26,152.53 32.06,151.91 27.95,150.88 23.95,149.45 20.12,147.63 16.48,145.45 13.07,142.93 9.92,140.08 7.07,136.93 4.55,133.52 2.37,129.88 0.55,126.05 -0.88,122.05 -1.91,117.94 -2.53,113.74 -2.73,109.77"/>
    </edge>
    <edge id="-1" from="28" to="29" priority="-1" shape="0.00,40.50 0.00,109.50">
        <lane id="-1_0" index="0" speed="13.90" length="68.73" width="5.38" shape="8.21,40.64 8.21,109.36"/>
        <lane id="-1_1" index="1" speed="13.90" length="68.73" width="5.38" shape="2.74,40.64 2.74,109.36"/>
    </edge>
    <edge id="-10" from="16" to="24" priority="-1" shape="130.50,60.00 100.50,60.00">
        <lane id="-10_0" index="0" speed="13.90" length="38.61" width="5.38" shape="139.25,68.21 100.64,68.21"/>
        <lane id="-10_1" index="1" speed="13.90" length="38.61" width="5.38" shape="139.25,62.74 100.64,62.74"/>
    </edge>
    <edge id="-11" from="16" to="18" priority="-1" shape="169.50,60.00 173.47,60.19 177.40,60.78 181.26,61.74 185.00,63.08 188.59,64.78 192.00,66.83 195.19,69.19 198.14,71.86 200.81,74.81 203.17,78.00 205.22,81.41 206.92,85.00 208.26,88.74 209.22,92.60 209.81,96.53 210.00,100.50">
        <lane id="-11_0" index="0" speed="13.90" length="80.55" width="5.38" shape="160.75,51.35 174.28,52.01 179.01,52.71 183.64,53.88 188.15,55.49 192.47,57.53 196.57,59.99 200.41,62.84 203.95,66.05 207.16,69.59 210.01,73.43 212.47,77.53 214.51,81.85 216.12,86.36 217.29,90.99 217.99,95.72 218.20,99.96"/>
        <lane id="-11_1" index="1" speed="13.90" length="80.55" width="5.38" shape="160.75,56.83 173.74,57.47 177.94,58.09 182.05,59.12 186.05,60.55 189.88,62.36 193.52,64.55 196.93,67.07 200.08,69.92 202.93,73.07 205.45,76.48 207.64,80.12 209.45,83.95 210.88,87.95 211.91,92.06 212.53,96.26 212.73,100.23"/>
    </edge>
    <edge id="-12" from="19" to="18" priority="-1" shape="210.00,169.50 210.00,100.50">
        <lane id="-12_0" index="0" speed="13.90" length="68.73" width="5.38" shape="201.79,169.36 201.79,100.64"/>
        <lane id="-12_1" index="1" speed="13.90" length="68.73" width="5.38" shape="207.26,169.36 207.26,100.64"/>
    </edge>
    <edge id="-13" from="19" to="20" priority="-1" shape="210.00,169.50 209.81,173.47 209.22,177.40 208.26,181.26 206.92,185.00 205.22,188.59 203.17,192.00 200.81,195.19 198.14,198.14 195.19,200.81 192.00,203.17 188.59,205.22 185.00,206.92 181.26,208.26 177.40,209.22 173.47,209.80 169.50,210.00">
        <lane id="-13_0" index="0" speed="13.90" length="71.39" width="5.38" shape="218.20,170.04 217.99,174.28 217.29,179.01 216.12,183.64 214.51,188.15 212.47,192.47 210.01,196.57 207.16,200.41 203.95,203.95 200.41,207.16 196.57,210.01 192.47,212.47 188.15,214.51 183.64,216.12 179.01,217.29 174.28,217.99 170.04,218.20"/>
        <lane id="-13_1" index="1" speed="13.90" length="71.39" width="5.38" shape="212.73,169.77 212.53,173.74 211.91,177.94 210.88,182.05 209.45,186.05 207.64,189.88 205.45,193.52 202.93,196.93 200.08,200.08 196.93,202.93 193.52,205.45 189.88,207.63 186.05,209.45 182.05,210.88 177.94,211.91 173.74,212.53 169.77,212.73"/>
    </edge>
    <edge id="-14" from="21" to="20" priority="-1" shape="100.50,210.00 169.50,210.00">
        <lane id="-14_0" index="0" speed="13.90" length="68.73" width="5.38" shape="100.64,201.79 169.36,201.79"/>
        <lane id="-14_1" index="1" speed="13.90" length="68.73" width="5.38" shape="100.64,207.26 169.36,207.26"/>
    </edge>
    <edge id="-15" from="21" to="17" priority="-1" shape="100.50,210.00 96.53,209.80 92.60,209.22 88.74,208.26 85.00,206.92 81.41,205.22 78.00,203.17 74.81,200.81 71.86,198.14 69.19,195.19 66.83,192.00 64.78,188.59 63.08,185.00 61.74,181.26 60.78,177.40 60.20,173.47 60.00,169.50">
        <lane id="-15_0" index="0" speed="13.90" length="80.55" width="5.38" shape="99.96,218.20 95.72,217.99 90.99,217.29 86.36,216.12 81.85,214.51 77.53,212.47 73.43,210.01 69.59,207.16 66.05,203.95 62.84,200.41 59.99,196.57 57.53,192.47 55.49,188.15 53.88,183.64 52.71,179.01 52.01,174.28 51.35,160.75"/>
        <lane id="-15_1" index="1" speed="13.90" length="80.55" width="5.38" shape="100.23,212.73 96.26,212.53 92.06,211.91 87.95,210.88 83.95,209.45 80.12,207.63 76.48,205.45 73.07,202.93 69.92,200.08 67.07,196.93 64.55,193.52 62.37,189.88 60.55,186.05 59.12,182.05 58.09,177.94 57.47,173.74 56.83,160.75"/>
    </edge>