<?xml version="1.0" encoding="UTF-8"?>

<!-- generated on 14.07.2017 15:37:57 by Netedit Version 0.30.0
<?xml version="1.0" encoding="UTF-8"?>

<configuration xmlns:xsi="http://www.w3.org/2001/XMLSchema-instance" xsi:noNamespaceSchemaLocation="http://sumo.dlr.de/xsd/netconvertConfiguration.xsd">

    <input>
        <sumo-net-file value="C:\msys64\home\David\develop\webots-develop\projects\automobile\worlds\city_night_net\sumo.net.xml"/>
    </input>

    <output>
        <output-file value="C:\msys64\home\David\develop\webots-develop\projects\automobile\worlds\city_night_net\sumo.net.xml"/>
    </output>

    <processing>
        <no-turnarounds value="true"/>
        <offset.disable-normalization value="true"/>
        <lefthand value="false"/>
        <junctions.corner-detail value="0"/>
        <rectangular-lane-cut value="false"/>
    </processing>

    <visualisation>
        <registry-viewport value="true"/>
    </visualisation>

</configuration>
-->

<net version="0.27" xmlns:xsi="http://www.w3.org/2001/XMLSchema-instance" xsi:noNamespaceSchemaLocation="http://sumo.dlr.de/xsd/net_file.xsd">

    <location netOffset="105.00,105.00" convBoundary="0.00,0.00,210.00,210.00" origBoundary="-105.00,-105.00,105.00,105.00" projParameter="!"/>

    <edge id=":16_0" function="internal">
        <lane id=":16_0_0" index="0" speed="13.90" length="1.53" width="5.38" shape="51.78,70.75 50.25,70.75"/>
    </edge>
    <edge id=":16_1" function="internal">
        <lane id=":16_1_0" index="0" speed="13.90" length="4.48" width="5.38" shape="51.78,70.75 51.62,69.41 51.15,68.47 50.36,67.93 49.25,67.79"/>
    </edge>
    <edge id=":16_2" function="internal">
        <lane id=":16_2_0" index="0" speed="13.90" length="1.53" width="5.38" shape="57.26,70.75 55.73,70.75"/>
    </edge>
    <edge id=":16_3" function="internal">
        <lane id=":16_3_0" index="0" speed="13.90" length="21.76" width="5.38" shape="57.26,70.75 58.10,64.85 60.63,60.63 64.85,58.10 70.75,57.26"/>
    </edge>
    <edge id=":16_4" function="internal">
        <lane id=":16_4_0" index="0" speed="13.90" length="1.52" width="5.38" shape="66.71,70.75 68.22,70.75"/>
    </edge>
    <edge id=":16_5" function="internal">
        <lane id=":16_5_0" index="0" speed="13.90" length="19.89" width="5.38" shape="66.71,70.75 67.32,62.45 68.20,56.52 69.34,52.97 70.75,51.78"/>
    </edge>
    <edge id=":16_6" function="internal">
        <lane id=":16_6_0" index="0" speed="13.90" length="1.52" width="5.38" shape="61.22,70.75 62.74,70.75"/>
    </edge>
    <edge id=":16_7" function="internal">
        <lane id=":16_7_0" index="0" speed="13.90" length="16.96" width="5.38" shape="61.22,70.75 60.64,66.82 58.46,64.10 54.66,62.60 49.25,62.30"/>
    </edge>
    <edge id=":16_8" function="internal">
        <lane id=":16_8_0" index="0" speed="13.90" length="4.08" width="5.38" shape="70.75,68.22 69.64,68.38 68.85,68.85 68.38,69.64 68.22,70.75"/>
    </edge>
    <edge id=":16_9" function="internal">
        <lane id=":16_9_0" index="0" speed="13.90" length="21.50" width="5.38" shape="70.75,68.22 49.25,67.79"/>
    </edge>
    <edge id=":16_10" function="internal">
        <lane id=":16_10_0" index="0" speed="13.90" length="18.79" width="5.38" shape="70.75,62.74 64.33,63.24 59.69,64.74 56.82,67.25 55.73,70.75"/>
    </edge>
    <edge id=":16_11" function="internal">
        <lane id=":16_11_0" index="0" speed="13.90" length="21.50" width="5.38" shape="70.75,62.74 49.25,62.30"/>
    </edge>
    <edge id=":16_12" function="internal">
        <lane id=":16_12_0" index="0" speed="13.90" length="21.50" width="5.38" shape="49.25,51.33 70.75,51.78"/>
    </edge>
    <edge id=":16_13" function="internal">
        <lane id=":16_13_0" index="0" speed="13.90" length="19.70" width="5.38" shape="49.25,51.33 50.05,52.51 50.49,56.13 50.55,62.22 50.25,70.75"/>
    </edge>
    <edge id=":16_14" function="internal">
        <lane id=":16_14_0" index="0" speed="13.90" length="21.50" width="5.38" shape="49.25,56.82 70.75,57.26"/>
    </edge>
    <edge id=":16_15" function="internal">
        <lane id=":16_15_0" index="0" speed="13.90" length="10.56" width="5.38" shape="49.25,56.82 55.15,57.43 59.12,59.81"/>
    </edge>
    <edge id=":16_16" function="internal">
        <lane id=":16_16_0" index="0" speed="13.90" length="11.80" width="5.38" shape="59.12,59.81 59.37,59.96 61.90,64.40 62.74,70.75"/>
    </edge>
    <edge id=":17_0" function="internal">
        <lane id=":17_0_0" index="0" speed="13.90" length="3.30" width="5.38" shape="160.75,158.65 159.88,158.82 159.24,159.22 158.84,159.87 158.67,160.75"/>
    </edge>
    <edge id=":17_1" function="internal">
        <lane id=":17_1_0" index="0" speed="13.90" length="21.50" width="5.38" shape="160.75,158.65 139.25,158.22"/>
    </edge>
    <edge id=":17_2" function="internal">
        <lane id=":17_2_0" index="0" speed="13.90" length="17.02" width="5.38" shape="160.75,153.16 154.85,153.88 150.63,155.38 148.10,157.67 147.26,160.75"/>
    </edge>
    <edge id=":17_3" function="internal">
        <lane id=":17_3_0" index="0" speed="13.90" length="21.50" width="5.38" shape="160.75,153.16 139.25,152.74"/>
    </edge>
    <edge id=":17_4" function="internal">
        <lane id=":17_4_0" index="0" speed="13.90" length="21.50" width="5.38" shape="139.25,141.78 160.75,142.19"/>
    </edge>
    <edge id=":17_5" function="internal">
        <lane id=":17_5_0" index="0" speed="13.90" length="19.51" width="5.38" shape="139.25,141.78 140.36,142.97 141.15,146.52 141.62,152.45 141.78,160.75"/>
    </edge>
    <edge id=":17_6" function="internal">
        <lane id=":17_6_0" index="0" speed="13.90" length="21.50" width="5.38" shape="139.25,147.26 160.75,147.68"/>
    </edge>
    <edge id=":17_7" function="internal">
        <lane id=":17_7_0" index="0" speed="13.90" length="10.74" width="5.38" shape="139.25,147.26 145.60,148.10 149.37,150.25"/>
    </edge>
    <edge id=":17_16" function="internal">
        <lane id=":17_16_0" index="0" speed="13.90" length="11.63" width="5.38" shape="149.37,150.25 150.04,150.63 152.57,154.85 153.18,160.75"/>
    </edge>
    <edge id=":17_8" function="internal">
        <lane id=":17_8_0" index="0" speed="13.90" length="0.43" width="5.38" shape="142.21,160.75 141.78,160.75"/>
    </edge>
    <edge id=":17_9" function="internal">
        <lane id=":17_9_0" index="0" speed="13.90" length="4.48" width="5.38" shape="142.21,160.75 142.07,159.64 141.53,158.85 140.59,158.38 139.25,158.22"/>
    </edge>
    <edge id=":17_10" function="internal">
        <lane id=":17_10_0" index="0" speed="13.90" length="0.43" width="5.38" shape="147.70,160.75 147.26,160.75"/>
    </edge>
    <edge id=":17_11" function="internal">
        <lane id=":17_11_0" index="0" speed="13.90" length="20.64" width="5.38" shape="147.70,160.75 148.75,155.25 151.27,151.24 155.28,148.72 160.75,147.68"/>
    </edge>
    <edge id=":17_12" function="internal">
        <lane id=":17_12_0" index="0" speed="13.90" length="0.45" width="5.38" shape="158.22,160.75 158.67,160.75"/>
    </edge>
    <edge id=":17_13" function="internal">
        <lane id=":17_13_0" index="0" speed="13.90" length="19.10" width="5.38" shape="158.22,160.75 158.38,152.68 158.85,146.89 159.64,143.39 160.75,142.19"/>
    </edge>
    <edge id=":17_14" function="internal">
        <lane id=":17_14_0" index="0" speed="13.90" length="0.45" width="5.38" shape="152.74,160.75 153.18,160.75"/>
    </edge>
    <edge id=":17_15" function="internal">
        <lane id=":17_15_0" index="0" speed="13.90" length="17.56" width="5.38" shape="152.74,160.75 151.90,157.25 149.37,154.74 145.15,153.24 139.25,152.74"/>
    </edge>
    <edge id=":18_0" function="internal">
        <lane id=":18_0_0" index="0" speed="13.90" length="0.27" width="5.38" shape="100.77,8.22 100.64,8.22"/>
        <lane id=":18_0_1" index="1" speed="13.90" length="0.27" width="5.38" shape="100.77,2.74 100.36,2.75"/>
    </edge>
    <edge id=":18_2" function="internal">
        <lane id=":18_2_0" index="0" speed="13.90" length="0.82" width="5.38" shape="99.81,-8.20 100.77,-8.22"/>
        <lane id=":18_2_1" index="1" speed="13.90" length="0.82" width="5.38" shape="100.09,-2.72 100.77,-2.74"/>
    </edge>
    <edge id=":19_0" function="internal">
        <lane id=":19_0_0" index="0" speed="13.90" length="0.27" width="5.38" shape="169.36,8.22 169.23,8.22"/>
        <lane id=":19_0_1" index="1" speed="13.90" length="0.27" width="5.38" shape="169.64,2.75 169.23,2.74"/>
    </edge>
    <edge id=":19_2" function="internal">
        <lane id=":19_2_0" index="0" speed="13.90" length="0.82" width="5.38" shape="169.23,-8.22 170.19,-8.20"/>
        <lane id=":19_2_1" index="1" speed="13.90" length="0.82" width="5.38" shape="169.23,-2.74 169.91,-2.72"/>
    </edge>
    <edge id=":20_0" function="internal">
        <lane id=":20_0_0" index="0" speed="13.90" length="0.13" width="5.38" shape="201.78,40.63 201.78,40.76"/>
        <lane id=":20_0_1" index="1" speed="13.90" length="0.13" width="5.38" shape="207.26,40.63 207.26,40.50"/>
    </edge>
    <edge id=":20_2" function="internal">
        <lane id=":20_2_0" index="0" speed="13.90" length="0.53" width="5.38" shape="218.20,39.97 218.22,40.63"/>
        <lane id=":20_2_1" index="1" speed="13.90" length="0.53" width="5.38" shape="212.73,40.24 212.74,40.63"/>
    </edge>
    <edge id=":21_0" function="internal">
        <lane id=":21_0_0" index="0" speed="13.90" length="0.82" width="5.38" shape="218.22,109.23 218.20,110.19"/>
        <lane id=":21_0_1" index="1" speed="13.90" length="0.82" width="5.38" shape="212.74,109.23 212.72,109.91"/>
    </edge>
    <edge id=":21_2" function="internal">
        <lane id=":21_2_0" index="0" speed="13.90" length="0.27" width="5.38" shape="201.78,109.36 201.78,109.23"/>
        <lane id=":21_2_1" index="1" speed="13.90" length="0.27" width="5.38" shape="207.25,109.64 207.26,109.23"/>
    </edge>
    <edge id=":22_0" function="internal">
        <lane id=":22_0_0" index="0" speed="13.90" length="0.13" width="5.38" shape="141.78,100.63 141.78,100.76"/>
        <lane id=":22_0_1" index="1" speed="13.90" length="0.13" width="5.38" shape="147.26,100.63 147.26,100.50"/>
    </edge>
    <edge id=":22_2" function="internal">
        <lane id=":22_2_0" index="0" speed="13.90" length="0.53" width="5.38" shape="158.20,99.97 158.22,100.63"/>
        <lane id=":22_2_1" index="1" speed="13.90" length="0.53" width="5.38" shape="152.73,100.24 152.74,100.63"/>
    </edge>
    <edge id=":23_0" function="internal">
        <lane id=":23_0_0" index="0" speed="13.90" length="0.27" width="5.38" shape="109.36,68.22 109.23,68.22"/>
        <lane id=":23_0_1" index="1" speed="13.90" length="0.27" width="5.38" shape="109.64,62.75 109.23,62.74"/>
    </edge>
    <edge id=":23_2" function="internal">
        <lane id=":23_2_0" index="0" speed="13.90" length="0.82" width="5.38" shape="109.23,51.78 110.19,51.80"/>
        <lane id=":23_2_1" index="1" speed="13.90" length="0.82" width="5.38" shape="109.23,57.26 109.91,57.28"/>
    </edge>
    <edge id=":24_0" function="internal">
        <lane id=":24_0_0" index="0" speed="13.90" length="0.82" width="5.38" shape="51.80,110.19 51.78,109.23"/>
        <lane id=":24_0_1" index="1" speed="13.90" length="0.82" width="5.38" shape="57.28,109.91 57.26,109.23"/>
    </edge>
    <edge id=":24_2" function="internal">
        <lane id=":24_2_0" index="0" speed="13.90" length="0.27" width="5.38" shape="68.22,109.23 68.22,109.36"/>
        <lane id=":24_2_1" index="1" speed="13.90" length="0.27" width="5.38" shape="62.74,109.23 62.75,109.64"/>
    </edge>
    <edge id=":25_0" function="internal">
        <lane id=":25_0_0" index="0" speed="13.90" length="0.82" width="5.38" shape="100.77,158.22 99.81,158.20"/>
        <lane id=":25_0_1" index="1" speed="13.90" length="0.82" width="5.38" shape="100.77,152.74 100.09,152.72"/>
    </edge>
    <edge id=":25_2" function="internal">
        <lane id=":25_2_0" index="0" speed="13.90" length="0.27" width="5.38" shape="100.64,141.78 100.77,141.78"/>
        <lane id=":25_2_1" index="1" speed="13.90" length="0.27" width="5.38" shape="100.36,147.25 100.77,147.26"/>
    </edge>
    <edge id=":26_0" function="internal">
        <lane id=":26_0_0" index="0" speed="13.90" length="0.82" width="5.38" shape="-8.22,100.77 -8.20,99.81"/>
        <lane id=":26_0_1" index="1" speed="13.90" length="0.82" width="5.38" shape="-2.74,100.77 -2.72,100.09"/>
    </edge>
    <edge id=":26_2" function="internal">
        <lane id=":26_2_0" index="0" speed="13.90" length="0.27" width="5.38" shape="8.22,100.64 8.22,100.77"/>
        <lane id=":26_2_1" index="1" speed="13.90" length="0.27" width="5.38" shape="2.75,100.36 2.74,100.77"/>
    </edge>
    <edge id=":27_0" function="internal">
        <lane id=":27_0_0" index="0" speed="13.90" length="0.82" width="5.38" shape="-8.20,170.19 -8.22,169.23"/>
        <lane id=":27_0_1" index="1" speed="13.90" length="0.82" width="5.38" shape="-2.72,169.91 -2.74,169.23"/>
    </edge>
    <edge id=":27_2" function="internal">
        <lane id=":27_2_0" index="0" speed="13.90" length="0.27" width="5.38" shape="8.22,169.23 8.22,169.36"/>
        <lane id=":27_2_1" index="1" speed="13.90" length="0.27" width="5.38" shape="2.74,169.23 2.75,169.64"/>
    </edge>
    <edge id=":28_0" function="internal">
        <lane id=":28_0_0" index="0" speed="13.90" length="0.82" width="5.38" shape="40.77,218.22 39.81,218.20"/>
        <lane id=":28_0_1" index="1" speed="13.90" length="0.82" width="5.38" shape="40.77,212.74 40.09,212.72"/>
    </edge>
    <edge id=":28_2" function="internal">
        <lane id=":28_2_0" index="0" speed="13.90" length="0.27" width="5.38" shape="40.64,201.78 40.77,201.78"/>
        <lane id=":28_2_1" index="1" speed="13.90" length="0.27" width="5.38" shape="40.36,207.25 40.77,207.26"/>
    </edge>
    <edge id=":29_0" function="internal">
        <lane id=":29_0_0" index="0" speed="13.90" length="0.82" width="5.38" shape="110.19,218.20 109.23,218.22"/>
        <lane id=":29_0_1" index="1" speed="13.90" length="0.82" width="5.38" shape="109.91,212.72 109.23,212.74"/>
    </edge>
    <edge id=":29_2" function="internal">
        <lane id=":29_2_0" index="0" speed="13.90" length="0.27" width="5.38" shape="109.23,201.78 109.36,201.78"/>
        <lane id=":29_2_1" index="1" speed="13.90" length="0.27" width="5.38" shape="109.23,207.26 109.64,207.25"/>
    </edge>

    <edge id="-0" from="17" to="29" priority="-1" shape="150.00,169.50 149.80,173.47 149.22,177.40 148.26,181.26 146.92,185.00 145.22,188.59 143.17,192.00 140.81,195.19 138.14,198.14 135.19,200.81 132.00,203.17 128.59,205.22 125.00,206.92 121.26,208.26 117.40,209.22 113.47,209.80 109.50,210.00">
        <lane id="-0_0" index="0" speed="13.90" length="80.42" width="5.38" shape="158.67,160.75 157.99,174.28 157.29,179.00 156.14,183.64 154.52,188.15 152.47,192.48 150.01,196.57 147.18,200.41 143.96,203.96 140.41,207.18 136.57,210.01 132.48,212.47 128.15,214.52 123.64,216.14 119.00,217.29 114.28,217.99 110.19,218.20"/>
        <lane id="-0_1" index="1" speed="13.90" length="80.42" width="5.38" shape="153.18,160.75 152.53,173.74 151.91,177.93 150.89,182.05 149.45,186.05 147.64,189.89 145.45,193.52 142.93,196.93 140.08,200.08 136.93,202.93 133.52,205.45 129.89,207.64 126.05,209.45 122.05,210.89 117.93,211.91 113.74,212.53 109.91,212.72"/>
    </edge>
    <edge id="-1" from="28" to="29" priority="-1">
        <lane id="-1_0" index="0" speed="13.90" length="68.45" width="5.38" shape="40.77,201.78 109.23,201.78"/>
        <lane id="-1_1" index="1" speed="13.90" length="68.45" width="5.38" shape="40.77,207.26 109.23,207.26"/>
    </edge>
    <edge id="-10" from="16" to="24" priority="-1" shape="60.00,79.50 60.00,109.50">
        <lane id="-10_0" index="0" speed="13.90" length="38.48" width="5.38" shape="68.22,70.75 68.22,109.23"/>
        <lane id="-10_1" index="1" speed="13.90" length="38.48" width="5.38" shape="62.74,70.75 62.74,109.23"/>
    </edge>
    <edge id="-11" from="16" to="18" priority="-1" shape="60.00,40.50 60.20,36.53 60.78,32.60 61.74,28.74 63.08,25.00 64.78,21.41 66.83,18.00 69.19,14.81 71.86,11.86 74.81,9.19 78.00,6.83 81.41,4.78 85.00,3.08 88.74,1.74 92.60,0.78 96.53,0.20 100.50,0.00">
        <lane id="-11_0" index="0" speed="13.90" length="101.94" width="5.38" shape="50.25,70.75 52.01,35.72 52.71,31.00 53.86,26.36 55.48,21.85 57.53,17.52 59.99,13.43 62.82,9.59 66.04,6.04 69.59,2.82 73.43,-0.01 77.52,-2.47 81.85,-4.52 86.36,-6.14 91.00,-7.29 95.72,-7.99 99.81,-8.20"/>
        <lane id="-11_1" index="1" speed="13.90" length="101.94" width="5.38" shape="55.73,70.75 57.47,36.26 58.09,32.07 59.11,27.95 60.55,23.95 62.36,20.11 64.55,16.48 67.07,13.07 69.92,9.92 73.07,7.07 76.48,4.55 80.11,2.36 83.95,0.55 87.95,-0.89 92.07,-1.91 96.26,-2.53 100.09,-2.72"/>
    </edge>
    <edge id="-12" from="19" to="18" priority="-1">
        <lane id="-12_0" index="0" speed="13.90" length="68.45" width="5.38" shape="169.23,8.22 100.77,8.22"/>
        <lane id="-12_1" index="1" speed="13.90" length="68.45" width="5.38" shape="169.23,2.74 100.77,2.74"/>
    </edge>
    <edge id="-13" from="19" to="20" priority="-1" shape="169.50,0.00 173.47,0.20 177.40,0.78 181.26,1.74 185.00,3.08 188.59,4.78 192.00,6.83 195.19,9.19 198.14,11.86 200.81,14.81 203.17,18.00 205.22,21.41 206.92,25.00 208.26,28.74 209.22,32.60 209.81,36.53 210.00,40.50">
        <lane id="-13_0" index="0" speed="13.90" length="71.26" width="5.38" shape="170.19,-8.20 174.28,-7.99 179.00,-7.29 183.64,-6.14 188.15,-4.52 192.48,-2.47 196.57,-0.01 200.41,2.82 203.96,6.04 207.18,9.59 210.01,13.43 212.47,17.52 214.52,21.85 216.14,26.36 217.29,30.99 218.00,35.72 218.20,39.97"/>
        <lane id="-13_1" index="1" speed="13.90" length="71.26" width="5.38" shape="169.91,-2.72 173.74,-2.53 177.93,-1.91 182.05,-0.89 186.05,0.55 189.89,2.36 193.52,4.55 196.93,7.07 200.08,9.92 202.93,13.07 205.45,16.48 207.64,20.11 209.45,23.95 210.89,27.95 211.91,32.06 212.54,36.26 212.73,40.24"/>
    </edge>
    <edge id="-14" from="21" to="20" priority="-1">
        <lane id="-14_0" index="0" speed="13.90" length="68.59" width="5.38" shape="201.78,109.23 201.78,40.63"/>
        <lane id="-14_1" index="1" speed="13.90" length="68.59" width="5.38" shape="207.26,109.23 207.26,40.63"/>
    </edge>
    <edge id="-15" from="21" to="17" priority="-1" shape="210.00,109.50 209.80,113.47 209.22,117.40 208.26,121.26 206.92,125.00 205.22,128.59 203.17,132.00 200.81,135.19 198.14,138.14 195.19,140.81 192.00,143.17 188.59,145.22 185.00,146.92 181.26,148.26 177.40,149.22 173.47,149.81 169.50,150.00">
        <lane id="-15_0" index="0" speed="13.90" length="80.42" width="5.38" shape="218.20,110.19 217.99,114.28 217.29,119.00 216.14,123.64 214.52,128.15 212.47,132.48 210.01,136.57 207.18,140.41 203.96,143.96 200.41,147.18 196.57,150.01 192.48,152.47 188.15,154.52 183.64,156.14 179.01,157.29 174.28,158.00 160.75,158.65"/>
        <lane id="-15_1" index="1" speed="13.90" length="80.42" width="5.38" shape="212.72,109.91 212.53,113.74 211.91,117.93 210.89,122.05 209.45,126.05 207.64,129.89 205.45,133.52 202.93,136.93 200.08,140.08 196.93,142.93 193.52,145.45 189.89,147.64 186.05,149.45 182.05,150.89 177.94,151.91 173.74,152.54 160.75,153.16"/>
    </edge>
    <edge id="-2" from="28" to="27" priority="-1" shape="40.50,210.00 36.53,209.80 32.60,209.22 28.74,208.26 25.00,206.92 21.41,205.22 18.00,203.17 14.81,200.81 11.86,198.14 9.19,195.19 6.83,192.00 4.78,188.59 3.08,185.00 1.74,181.26 0.78,177.40 0.20,173.47 0.00,169.50">
        <lane id="-2_0" index="0" speed="13.90" length="71.11" width="5.38" shape="39.81,218.20 35.72,217.99 31.00,217.29 26.36,216.14 21.85,214.52 17.52,212.47 13.43,210.01 9.59,207.18 6.04,203.96 2.82,200.41 -0.01,196.57 -2.47,192.48 -4.52,188.15 -6.14,183.64 -7.29,179.00 -7.99,174.28 -8.20,170.19"/>
        <lane id="-2_1" index="1" speed="13.90" length="71.11" width="5.38" shape="40.09,212.72 36.26,212.53 32.07,211.91 27.95,210.89 23.95,209.45 20.11,207.64 16.48,205.45 13.07,202.93 9.92,200.08 7.07,196.93 4.55,193.52 2.36,189.89 0.55,186.05 -0.89,182.05 -1.91,177.93 -2.53,173.74 -2.72,169.91"/>
    </edge>
    <edge id="-3" from="26" to="27" priority="-1">
        <lane id="-3_0" index="0" speed="13.90" length="68.45" width="5.38" shape="8.22,100.77 8.22,169.23"/>
        <lane id="-3_1" index="1" speed="13.90" length="68.45" width="5.38" shape="2.74,100.77 2.74,169.23"/>
    </edge>
    <edge id="-4" from="26" to="16" priority="-1" shape="0.00,100.50 0.20,96.53 0.78,92.60 1.74,88.74 3.08,85.00 4.78,81.41 6.83,78.00 9.19,74.81 11.86,71.86 14.81,69.19 18.00,66.83 21.41,64.78 25.00,63.08 28.74,61.74 32.60,60.78 36.53,60.20 40.50,60.00">
        <lane id="-4_0" index="0" speed="13.90" length="80.42" width="5.38" shape="-8.20,99.81 -7.99,95.72 -7.29,91.00 -6.14,86.36 -4.52,81.85 -2.47,77.52 -0.01,73.43 2.82,69.59 6.04,66.04 9.59,62.82 13.43,59.99 17.52,57.53 21.85,55.48 26.36,53.86 31.00,52.71 35.72,52.01 49.25,51.33"/>
        <lane id="-4_1" index="1" speed="13.90" length="80.42" width="5.38" shape="-2.72,100.09 -2.53,96.26 -1.91,92.07 -0.89,87.95 0.55,83.95 2.36,80.11 4.55,76.48 7.07,73.07 9.92,69.92 13.07,67.07 16.48,64.55 20.11,62.36 23.95,60.55 27.95,59.11 32.07,58.09 36.26,57.47 49.25,56.82"/>
    </edge>
    <edge id="-5" from="16" to="23" priority="-1" shape="79.50,60.00 109.50,60.00">
        <lane id="-5_0" index="0" speed="13.90" length="38.48" width="5.38" shape="70.75,51.78 109.23,51.78"/>
        <lane id="-5_1" index="1" speed="13.90" length="38.48" width="5.38" shape="70.75,57.26 109.23,57.26"/>
    </edge>
    <edge id="-6" from="23" to="22" priority="-1" shape="109.50,60.00 113.47,60.20 117.40,60.78 121.26,61.74 125.00,63.08 128.59,64.78 132.00,66.83 135.19,69.19 138.14,71.86 140.81,74.81 143.17,78.00 145.22,81.41 146.92,85.00 148.26,88.74 149.22,92.60 149.81,96.53 150.00,100.50">
        <lane id="-6_0" index="0" speed="13.90" length="71.26" width="5.38" shape="110.19,51.80 114.28,52.01 119.00,52.71 123.64,53.86 128.15,55.48 132.48,57.53 136.57,59.99 140.41,62.82 143.96,66.04 147.18,69.59 150.01,73.43 152.47,77.52 154.52,81.85 156.14,86.36 157.29,90.99 158.00,95.72 158.20,99.97"/>
        <lane id="-6_1" index="1" speed="13.90" length="71.26" width="5.38" shape="109.91,57.28 113.74,57.47 117.93,58.09 122.05,59.11 126.05,60.55 129.89,62.36 133.52,64.55 136.93,67.07 140.08,69.92 142.93,73.07 145.45,76.48 147.64,80.11 149.45,83.95 150.89,87.95 151.91,92.06 152.54,96.26 152.73,100.24"/>
    </edge>
    <edge id="-7" from="22" to="17" priority="-1" shape="150.00,100.50 150.00,130.50">
        <lane id="-7_0" index="0" speed="13.90" length="60.12" width="5.38" shape="158.22,100.63 158.22,160.75"/>
        <lane id="-7_1" index="1" speed="13.90" length="60.12" width="5.38" shape="152.74,100.63 152.74,160.75"/>
    </edge>
    <edge id="-8" from="25" to="17" priority="-1" shape="100.50,150.00 130.50,150.00">
        <lane id="-8_0" index="0" speed="13.90" length="38.48" width="5.38" shape="100.77,141.78 139.25,141.78"/>
        <lane id="-8_1" index="1" speed="13.90" length="38.48" width="5.38" shape="100.77,147.26 139.25,147.26"/>
    </edge>
    <edge id="-9" from="25" to="24" priority="-1" shape="100.50,150.00 96.53,149.80 92.60,149.22 88.74,148.26 85.00,146.92 81.41,145.22 78.00,143.17 74.81,140.81 71.86,138.14 69.19,135.19 66.83,132.00 64.78,128.59 63.08,125.00 61.74,121.26 60.78,117.40 60.20,113.47 60.00,109.50">
        <lane id="-9_0" index="0" speed="13.90" length="71.11" width="5.38" shape="99.81,158.20 95.72,157.99 91.00,157.29 86.36,156.14 81.85,154.52 77.52,152.47 73.43,150.01 69.59,147.18 66.04,143.96 62.82,140.41 59.99,136.57 57.53,132.48 55.48,128.15 53.86,123.64 52.71,119.00 52.01,114.28 51.80,110.19"/>
        <lane id="-9_1" index="1" speed="13.90" length="71.11" width="5.38" shape="100.09,152.72 96.26,152.53 92.07,151.91 87.95,150.89 83.95,149.45 80.11,147.64 76.48,145.45 73.07,142.93 69.92,140.08 67.07,136.93 64.55,133.52 62.36,129.89 60.55,126.05 59.11,122.05 58.09,117.93 57.47,113.74 57.28,109.91"/>
    </edge>
    <edge id="0" from="29" to="17" priority="-1" shape="109.50,210.00 113.47,209.80 117.40,209.22 121.26,208.26 125.00,206.92 128.59,205.22 132.00,203.17 135.19,200.81 138.14,198.14 140.81,195.19 143.17,192.00 145.22,188.59 146.92,185.00 148.26,181.26 149.22,177.40 149.80,173.47 150.00,169.50">
        <lane id="0_0" index="0" speed="13.90" length="63.74" width="5.38" shape="109.36,201.78 112.66,201.61 115.80,201.15 118.88,200.38 121.85,199.32 124.70,197.97 127.43,196.33 129.97,194.44 132.32,192.32 134.44,189.97 136.33,187.43 137.97,184.70 139.32,181.85 140.38,178.88 141.15,175.80 141.61,172.66 142.21,160.75"/>
        <lane id="0_1" index="1" speed="13.90" length="63.74" width="5.38" shape="109.64,207.25 113.20,207.07 116.87,206.53 120.47,205.63 123.95,204.39 127.29,202.80 130.48,200.89 133.45,198.69 136.20,196.20 138.69,193.45 140.89,190.48 142.80,187.29 144.39,183.95 145.63,180.47 146.53,176.87 147.07,173.20 147.70,160.75"/>
    </edge>
    <edge id="1" from="29" to="28" priority="-1">
        <lane id="1_0" index="0" speed="13.90" length="68.45" width="5.38" shape="109.23,218.22 40.77,218.22"/>
        <lane id="1_1" index="1" speed="13.90" length="68.45" width="5.38" shape="109.23,212.74 40.77,212.74"/>
    </edge>
    <edge id="10" from="24" to="16" priority="-1" shape="60.00,109.50 60.00,79.50">
        <lane id="10_0" index="0" speed="13.90" length="38.48" width="5.38" shape="51.78,109.23 51.78,70.75"/>
        <lane id="10_1" index="1" speed="13.90" length="38.48" width="5.38" shape="57.26,109.23 57.26,70.75"/>
    </edge>
    <edge id="11" from="18" to="16" priority="-1" shape="100.50,0.00 96.53,0.20 92.60,0.78 88.74,1.74 85.00,3.08 81.41,4.78 78.00,6.83 74.81,9.19 71.86,11.86 69.19,14.81 66.83,18.00 64.78,21.41 63.08,25.00 61.74,28.74 60.78,32.60 60.20,36.53 60.00,40.50">
        <lane id="11_0" index="0" speed="13.90" length="85.27" width="5.38" shape="100.64,8.22 97.34,8.39 94.20,8.85 91.12,9.62 88.15,10.68 85.30,12.03 82.57,13.67 80.03,15.56 77.68,17.68 75.56,20.03 73.67,22.57 72.03,25.30 70.68,28.15 69.62,31.12 68.85,34.20 68.39,37.34 66.71,70.75"/>
        <lane id="11_1" index="1" speed="13.90" length="85.27" width="5.38" shape="100.36,2.75 96.80,2.93 93.13,3.47 89.53,4.37 86.05,5.61 82.71,7.20 79.52,9.11 76.55,11.31 73.80,13.80 71.31,16.55 69.11,19.52 67.20,22.71 65.61,26.05 64.37,29.53 63.47,33.13 62.93,36.80 61.22,70.75"/>
    </edge>
    <edge id="12" from="18" to="19" priority="-1">
        <lane id="12_0" index="0" speed="13.90" length="68.45" width="5.38" shape="100.77,-8.22 169.23,-8.22"/>
        <lane id="12_1" index="1" speed="13.90" length="68.45" width="5.38" shape="100.77,-2.74 169.23,-2.74"/>
    </edge>
    <edge id="13" from="20" to="19" priority="-1" shape="210.00,40.50 209.81,36.53 209.22,32.60 208.26,28.74 206.92,25.00 205.22,21.41 203.17,18.00 200.81,14.81 198.14,11.86 195.19,9.19 192.00,6.83 188.59,4.78 185.00,3.08 181.26,1.74 177.40,0.78 173.47,0.20 169.50,0.00">
        <lane id="13_0" index="0" speed="13.90" length="55.11" width="5.38" shape="201.78,40.76 201.62,37.34 201.15,34.21 200.38,31.12 199.32,28.15 197.97,25.30 196.33,22.57 194.44,20.03 192.32,17.68 189.97,15.56 187.43,13.67 184.70,12.03 181.85,10.68 178.88,9.62 175.80,8.85 172.66,8.39 169.36,8.22"/>
        <lane id="13_1" index="1" speed="13.90" length="55.11" width="5.38" shape="207.26,40.50 207.08,36.80 206.53,33.14 205.63,29.53 204.39,26.05 202.80,22.71 200.89,19.52 198.69,16.55 196.20,13.80 193.45,11.31 190.48,9.11 187.29,7.20 183.95,5.61 180.47,4.37 176.87,3.47 173.20,2.93 169.64,2.75"/>
    </edge>
    <edge id="14" from="20" to="21" priority="-1">
        <lane id="14_0" index="0" speed="13.90" length="68.59" width="5.38" shape="218.22,40.63 218.22,109.23"/>
        <lane id="14_1" index="1" speed="13.90" length="68.59" width="5.38" shape="212.74,40.63 212.74,109.23"/>
    </edge>
    <edge id="15" from="17" to="21" priority="-1" shape="169.50,150.00 173.47,149.81 177.40,149.22 181.26,148.26 185.00,146.92 188.59,145.22 192.00,143.17 195.19,140.81 198.14,138.14 200.81,135.19 203.17,132.00 205.22,128.59 206.92,125.00 208.26,121.26 209.22,117.40 209.80,113.47 210.00,109.50">
        <lane id="15_0" index="0" speed="13.90" length="63.74" width="5.38" shape="160.75,142.19 172.66,141.62 175.79,141.15 178.88,140.38 181.85,139.32 184.70,137.97 187.43,136.33 189.97,134.44 192.32,132.32 194.44,129.97 196.33,127.43 197.97,124.70 199.32,121.85 200.38,118.88 201.15,115.80 201.61,112.66 201.78,109.36"/>
        <lane id="15_1" index="1" speed="13.90" length="63.74" width="5.38" shape="160.75,147.68 173.20,147.08 176.86,146.53 180.47,145.63 183.95,144.39 187.29,142.80 190.48,140.89 193.45,138.69 196.20,136.20 198.69,133.45 200.89,130.48 202.80,127.29 204.39,123.95 205.63,120.47 206.53,116.87 207.07,113.20 207.25,109.64"/>
    </edge>
    <edge id="2" from="27" to="28" priority="-1" shape="0.00,169.50 0.20,173.47 0.78,177.40 1.74,181.26 3.08,185.00 4.78,188.59 6.83,192.00 9.19,195.19 11.86,198.14 14.81,200.81 18.00,203.17 21.41,205.22 25.00,206.92 28.74,208.26 32.60,209.22 36.53,209.80 40.50,210.00">
        <lane id="2_0" index="0" speed="13.90" length="54.98" width="5.38" shape="8.22,169.36 8.39,172.66 8.85,175.80 9.62,178.88 10.68,181.85 12.03,184.70 13.67,187.43 15.56,189.97 17.68,192.32 20.03,194.44 22.57,196.33 25.30,197.97 28.15,199.32 31.12,200.38 34.20,201.15 37.34,201.61 40.64,201.78"/>