<?xml version='1.0' encoding='UTF-8'?>
<edges>
  <edge id="1" from="29" to="28" numLanes="2" width="5.375" shape="-105.000000,4.500000 -105.000253,-64.500000 "/>
  <edge id="-1" to="29" from="28" numLanes="2" width="5.375" shape="-105.000253,-64.500000 -105.000000,4.500000 "/>
  <edge id="3" from="27" to="26" numLanes="2" width="5.375" shape="-64.500000,-105.000000 4.500000,-105.000000 "/>
  <edge id="-3" to="27" from="26" numLanes="2" width="5.375" shape="4.500000,-105.000000 -64.500000,-105.000000 "/>
  <edge id="5" from="23" to="16" numLanes="2" width="5.375" shape="45.000000,4.500000 44.999890,-25.500000 "/>
  <edge id="-5" to="23" from="16" numLanes="2" width="5.375" shape="44.999890,-25.500000 45.000000,4.500000 "/>
  <edge id="7" from="17" to="22" numLanes="2" width="5.375" shape="-25.500000,45.000000 4.500000,45.000000 "/>
  <edge id="-7" to="17" from="22" numLanes="2" width="5.375" shape="4.500000,45.000000 -25.500000,45.000000 "/>
  <edge id="8" from="17" to="25" numLanes="2" width="5.375" shape="-45.000000,25.500000 -45.000110,-4.500000 "/>
  <edge id="-8" to="17" from="25" numLanes="2" width="5.375" shape="-45.000110,-4.500000 -45.000000,25.500000 "/>
  <edge id="10" from="24" to="16" numLanes="2" width="5.375" shape="-4.500000,-45.000000 25.500000,-45.000000 "/>
  <edge id="-10" to="24" from="16" numLanes="2" width="5.375" shape="25.500000,-45.000000 -4.500000,-45.000000 "/>
  <edge id="12" from="18" to="19" numLanes="2" width="5.375" shape="105.000000,-4.500000 105.000437,64.500000 "/>
  <edge id="-12" to="18" from="19" numLanes="2" width="5.375" shape="105.000437,64.500000 105.000000,-4.500000 "/>
  <edge id="14" from="20" to="21" numLanes="2" width="5.375" shape="64.500000,105.000000 -4.500000,105.001563 "/>
  <edge id="-14" to="20" from="21" numLanes="2" width="5.375" shape="-4.500000,105.001563 64.500000,105.000000 "/>
  <edge id="0" from="29" to="17" numLanes="2" width="5.375" shape="-105.000000,4.499851 -104.804995,8.469555 -104.221829,12.401030 -103.256119,16.256414 -101.917164,19.998576 -100.217859,23.591478 -98.174571,27.000517 -95.806976,30.192863 -93.137877,33.137772 -90.192978,35.806882 -87.000641,38.174488 -83.591609,40.217789 -79.998713,41.917107 -76.256556,43.256076 -72.401176,44.221800 -68.469703,44.804981 -64.500000,45.000000 "/>
  <edge id="-0" to="29" from="17" numLanes="2" width="5.375" shape="-64.500000,45.000000 -68.469703,44.804981 -72.401176,44.221800 -76.256556,43.256076 -79.998713,41.917107 -83.591609,40.217789 -87.000641,38.174488 -90.192978,35.806882 -93.137877,33.137772 -95.806976,30.192863 -98.174571,27.000517 -100.217859,23.591478 -101.917164,19.998576 -103.256119,16.256414 -104.221829,12.401030 -104.804995,8.469555 -105.000000,4.499851 "/>
  <edge id="2" from="27" to="28" numLanes="2" width="5.375" shape="-64.500917,-105.000000 -68.470616,-104.804891 -72.402076,-104.221621 -76.257434,-103.255809 -79.999561,-101.916756 -83.592418,-100.217357 -87.001404,-98.173979 -90.193688,-95.806300 -93.138526,-93.137123 -95.807558,-90.192154 -98.175081,-86.999754 -100.218292,-83.590668 -101.917515,-79.997728 -103.256385,-76.255536 -104.222008,-72.400131 -104.805085,-68.468642 -105.000000,-64.498934 "/>
  <edge id="-2" to="27" from="28" numLanes="2" width="5.375" shape="-105.000000,-64.498934 -104.805085,-68.468642 -104.222008,-72.400131 -103.256385,-76.255536 -101.917515,-79.997728 -100.218292,-83.590668 -98.175081,-86.999754 -95.807558,-90.192154 -93.138526,-93.137123 -90.193688,-95.806300 -87.001404,-98.173979 -83.592418,-100.217357 -79.999561,-101.916756 -76.257434,-103.255809 -72.402076,-104.221621 -68.470616,-104.804891 -64.500917,-105.000000 "/>
  <edge id="4" from="16" to="26" numLanes="2" width="5.375" shape="45.000000,-64.500149 44.804966,-68.469851 44.221771,-72.401322 43.256032,-76.256698 41.917050,-79.998851 40.217719,-83.591740 38.174406,-87.000765 35.806788,-90.193093 33.137667,-93.137982 30.192748,-95.807071 27.000393,-98.174654 23.591346,-100.217930 19.998438,-101.917221 16.256271,-103.256162 12.400884,-104.221858 8.469407,-104.805010 4.499702,-105.000000 "/>
  <edge id="-4" to="16" from="26" numLanes="2" width="5.375" shape="4.499702,-105.000000 8.469407,-104.805010 12.400884,-104.221858 16.256271,-103.256162 19.998438,-101.917221 23.591346,-100.217930 27.000393,-98.174654 30.192748,-95.807071 33.137667,-93.137982 35.806788,-90.193093 38.174406,-87.000765 40.217719,-83.591740 41.917050,-79.998851 43.256032,-76.256698 44.221771,-72.401322 44.804966,-68.469851 45.000000,-64.500149 "/>
  <edge id="6" from="22" to="23" numLanes="2" width="5.375" shape="4.500000,45.000000 8.469703,44.804981 12.401176,44.221800 16.256556,43.256076 19.998713,41.917107 23.591609,40.217789 27.000641,38.174488 30.192978,35.806882 33.137877,33.137772 35.806976,30.192863 38.174571,27.000517 40.217859,23.591478 41.917164,19.998576 43.256119,16.256414 44.221829,12.401030 44.804995,8.469555 45.000000,4.499851 "/>
  <edge id="-6" to="22" from="23" numLanes="2" width="5.375" shape="45.000000,4.499851 44.804995,8.469555 44.221829,12.401030 43.256119,16.256414 41.917164,19.998576 40.217859,23.591478 38.174571,27.000517 35.806976,30.192863 33.137877,33.137772 30.192978,35.806882 27.000641,38.174488 23.591609,40.217789 19.998713,41.917107 16.256556,43.256076 12.401176,44.221800 8.469703,44.804981 4.500000,45.000000 "/>
  <edge id="9" from="24" to="25" numLanes="2" width="5.375" shape="-4.500917,-45.000000 -8.470616,-44.804891 -12.402076,-44.221621 -16.257434,-43.255809 -19.999561,-41.916756 -23.592418,-40.217357 -27.001404,-38.173979 -30.193688,-35.806300 -33.138526,-33.137123 -35.807558,-30.192154 -38.175081,-26.999754 -40.218292,-23.590668 -41.917515,-19.997728 -43.256385,-16.255536 -44.222008,-12.400131 -44.805085,-8.468642 -45.000000,-4.498934 "/>
  <edge id="-9" to="24" from="25" numLanes="2" width="5.375" shape="-45.000000,-4.498934 -44.805085,-8.468642 -44.222008,-12.400131 -43.256385,-16.255536 -41.917515,-19.997728 -40.218292,-23.590668 -38.175081,-26.999754 -35.807558,-30.192154 -33.138526,-33.137123 -30.193688,-35.806300 -27.001404,-38.173979 -23.592418,-40.217357 -19.999561,-41.916756 -16.257434,-43.255809 -12.402076,-44.221621 -8.470616,-44.804891 -4.500917,-45.000000 "/>
  <edge id="11" from="18" to="16" numLanes="2" width="5.375" shape="105.000000,-4.500149 104.804966,-8.469851 104.221771,-12.401322 103.256032,-16.256698 101.917050,-19.998851 100.217719,-23.591740 98.174406,-27.000765 95.806788,-30.193093 93.137667,-33.137982 90.192748,-35.807071 87.000393,-38.174654 83.591346,-40.217930 79.998438,-41.917221 76.256271,-43.256162 72.400884,-44.221858 68.469407,-44.805010 64.499702,-45.000000 "/>
  <edge id="-11" to="18" from="16" numLanes="2" width="5.375" shape="64.499702,-45.000000 68.469407,-44.805010 72.400884,-44.221858 76.256271,-43.256162 79.998438,-41.917221 83.591346,-40.217930 87.000393,-38.174654 90.192748,-35.807071 93.137667,-33.137982 95.806788,-30.193093 98.174406,-27.000765 100.217719,-23.591740 101.917050,-19.998851 103.256032,-16.256698 104.221771,-12.401322 104.804966,-8.469851 105.000000,-4.500149 "/>
  <edge id="13" from="20" to="19" numLanes="2" width="5.375" shape="64.500000,105.000000 68.469703,104.804981 72.401176,104.221800 76.256556,103.256076 79.998713,101.917107 83.591609,100.217789 87.000641,98.174488 90.192978,95.806882 93.137877,93.137772 95.806976,90.192863 98.174571,87.000517 100.217859,83.591478 101.917164,79.998576 103.256119,76.256414 104.221829,72.401030 104.804995,68.469555 105.000000,64.499851 "/>
  <edge id="-13" to="20" from="19" numLanes="2" width="5.375" shape="105.000000,64.499851 104.804995,68.469555 104.221829,72.401030 103.256119,76.256414 101.917164,79.998576 100.217859,83.591478 98.174571,87.000517 95.806976,90.192863 93.137877,93.137772 90.192978,95.806882 87.000641,98.174488 83.591609,100.217789 79.998713,101.917107 76.256556,103.256076 72.401176,104.221800 68.469703,104.804981 64.500000,105.000000 "/>
  <edge id="15" from="17" to="21" numLanes="2" width="5.375" shape="-45.000000,64.499851 -44.804995,68.469555 -44.221829,72.401030 -43.256119,76.256414 -41.917164,79.998576 -40.217859,83.591478 -38.174571,87.000517 -35.806976,90.192863 -33.137877,93.137772 -30.192978,95.806882 -27.000641,98.174488 -23.591609,100.217789 -19.998713,101.917107 -16.256556,103.256076 -12.401176,104.221800 -8.469703,104.804981 -4.500000,105.000000 "/>
  <edge id="-15" to="17" from="21" numLanes="2" width="5.375" shape="-4.500000,105.000000 -8.469703,104.804981 -12.401176,104.221800 -16.256556,103.256076 -19.998713,101.917107 -23.591609,100.217789 -27.000641,98.174488 -30.192978,95.806882 -33.137877,93.137772 -35.806976,90.192863 -38.174571,87.000517 -40.217859,83.591478 -41.917164,79.998576 -43.256119,76.256414 -44.221829,72.401030 -44.804995,68.469555 -45.000000,64.499851 "/>
</edges>
