<?xml version="1.0" encoding="UTF-8"?>

<!-- generated on Fri Nov  5 11:25:52 2021 by SUMO netconvert Version 0.30.0

-->

<net version="0.27" xmlns:xsi="http://www.w3.org/2001/XMLSchema-instance" xsi:noNamespaceSchemaLocation="http://sumo.dlr.de/xsd/net_file.xsd">

    <location netOffset="105.11,105.00" convBoundary="0.00,0.00,210.11,210.00" origBoundary="-105.11,-105.00,105.00,105.00" projParameter="!"/>

    <edge id=":16_0" function="internal">
        <lane id=":16_0_0" index="0" speed="13.90" length="4.09" width="5.38" shape="141.90,70.75 141.74,69.64 141.26,68.85 140.47,68.37 139.36,68.21"/>
    </edge>
    <edge id=":16_1" function="internal">
        <lane id=":16_1_0" index="0" speed="13.90" length="21.50" width="5.38" shape="141.90,70.75 142.33,49.25"/>
        <lane id=":16_1_1" index="1" speed="13.90" length="21.50" width="5.38" shape="147.37,70.75 147.82,49.25"/>
    </edge>
    <edge id=":16_3" function="internal">
        <lane id=":16_3_0" index="0" speed="13.90" length="22.35" width="5.38" shape="147.37,70.75 148.21,64.41 150.74,59.98 154.96,57.45 160.86,56.83"/>
    </edge>
    <edge id=":16_4" function="internal">
        <lane id=":16_4_0" index="0" speed="13.90" length="8.00" width="5.38" shape="147.37,70.75 148.74,68.70 150.11,68.01 151.48,68.70 152.85,70.75"/>
    </edge>
    <edge id=":16_5" function="internal">
        <lane id=":16_5_0" index="0" speed="13.90" length="4.48" width="5.38" shape="160.86,67.79 159.75,67.93 158.96,68.47 158.48,69.41 158.32,70.75"/>
    </edge>
    <edge id=":16_6" function="internal">
        <lane id=":16_6_0" index="0" speed="13.90" length="21.50" width="5.38" shape="160.86,67.79 139.36,68.21"/>
        <lane id=":16_6_1" index="1" speed="13.90" length="21.50" width="5.38" shape="160.86,62.31 139.36,62.74"/>
    </edge>
    <edge id=":16_8" function="internal">
        <lane id=":16_8_0" index="0" speed="13.90" length="8.54" width="5.38" shape="160.86,62.31 155.39,61.27 152.88,59.68"/>
    </edge>
    <edge id=":16_9" function="internal">
        <lane id=":16_9_0" index="0" speed="13.90" length="4.00" width="5.38" shape="160.86,62.31 158.80,60.94 158.12,59.57"/>
    </edge>
    <edge id=":16_20" function="internal">
        <lane id=":16_20_0" index="0" speed="13.90" length="12.08" width="5.38" shape="152.88,59.68 151.39,58.74 148.87,54.74 147.82,49.25"/>
    </edge>
    <edge id=":16_21" function="internal">
        <lane id=":16_21_0" index="0" speed="13.90" length="4.00" width="5.38" shape="158.12,59.57 158.80,58.20 160.86,56.83"/>
    </edge>
    <edge id=":16_10" function="internal">
        <lane id=":16_10_0" index="0" speed="13.90" length="3.30" width="5.38" shape="158.78,49.25 158.95,50.13 159.35,50.77 159.99,51.18 160.86,51.35"/>
    </edge>
    <edge id=":16_11" function="internal">
        <lane id=":16_11_0" index="0" speed="13.90" length="21.50" width="5.38" shape="158.78,49.25 158.32,70.75"/>
        <lane id=":16_11_1" index="1" speed="13.90" length="21.50" width="5.38" shape="153.30,49.25 152.85,70.75"/>
    </edge>
    <edge id=":16_13" function="internal">
        <lane id=":16_13_0" index="0" speed="13.90" length="22.37" width="5.38" shape="153.30,49.25 152.68,55.15 150.16,59.37 145.71,61.89 139.36,62.74"/>
    </edge>
    <edge id=":16_14" function="internal">
        <lane id=":16_14_0" index="0" speed="13.90" length="8.01" width="5.38" shape="153.30,49.25 151.93,51.31 150.56,51.99 149.19,51.31 147.82,49.25"/>
    </edge>
    <edge id=":16_15" function="internal">
        <lane id=":16_15_0" index="0" speed="13.90" length="4.50" width="5.38" shape="139.36,51.79 140.71,51.63 141.65,51.15 142.20,50.36 142.33,49.25"/>
    </edge>
    <edge id=":16_16" function="internal">
        <lane id=":16_16_0" index="0" speed="13.90" length="21.50" width="5.38" shape="139.36,51.79 160.86,51.35"/>
        <lane id=":16_16_1" index="1" speed="13.90" length="21.50" width="5.38" shape="139.36,57.26 160.86,56.83"/>
    </edge>
    <edge id=":16_18" function="internal">
        <lane id=":16_18_0" index="0" speed="13.90" length="9.40" width="5.38" shape="139.36,57.26 145.26,58.11 148.21,59.87"/>
    </edge>
    <edge id=":16_19" function="internal">
        <lane id=":16_19_0" index="0" speed="13.90" length="4.00" width="5.38" shape="139.36,57.26 141.41,58.63 142.10,60.00"/>
    </edge>
    <edge id=":16_22" function="internal">
        <lane id=":16_22_0" index="0" speed="13.90" length="12.35" width="5.38" shape="148.21,59.87 149.48,60.63 152.00,64.85 152.85,70.75"/>
    </edge>
    <edge id=":16_23" function="internal">
        <lane id=":16_23_0" index="0" speed="13.90" length="4.00" width="5.38" shape="142.10,60.00 141.41,61.37 139.36,62.74"/>
    </edge>
    <edge id=":17_0" function="internal">
        <lane id=":17_0_0" index="0" speed="13.90" length="3.31" width="5.38" shape="51.46,160.75 51.29,159.87 50.88,159.23 50.24,158.82 49.36,158.65"/>
    </edge>
    <edge id=":17_1" function="internal">
        <lane id=":17_1_0" index="0" speed="13.90" length="21.50" width="5.38" shape="51.46,160.75 51.90,139.25"/>
        <lane id=":17_1_1" index="1" speed="13.90" length="21.50" width="5.38" shape="56.94,160.75 57.37,139.25"/>
    </edge>
    <edge id=":17_3" function="internal">
        <lane id=":17_3_0" index="0" speed="13.90" length="10.54" width="5.38" shape="56.94,160.75 57.56,154.85 59.93,150.90"/>
    </edge>
    <edge id=":17_4" function="internal">
        <lane id=":17_4_0" index="0" speed="13.90" length="4.12" width="5.38" shape="56.94,160.75 58.31,158.69 59.68,158.01 59.79,158.06"/>
    </edge>
    <edge id=":17_20" function="internal">
        <lane id=":17_20_0" index="0" speed="13.90" length="11.81" width="5.38" shape="59.93,150.90 60.09,150.63 64.52,148.11 70.86,147.26"/>
    </edge>
    <edge id=":17_21" function="internal">
        <lane id=":17_21_0" index="0" speed="13.90" length="3.88" width="5.38" shape="59.79,158.06 61.05,158.69 62.42,160.75"/>
    </edge>
    <edge id=":17_5" function="internal">
        <lane id=":17_5_0" index="0" speed="13.90" length="4.48" width="5.38" shape="70.86,158.21 69.52,158.37 68.58,158.85 68.04,159.64 67.90,160.75"/>
    </edge>
    <edge id=":17_6" function="internal">
        <lane id=":17_6_0" index="0" speed="13.90" length="21.50" width="5.38" shape="70.86,158.21 49.36,158.65"/>
        <lane id=":17_6_1" index="1" speed="13.90" length="21.50" width="5.38" shape="70.86,152.74 49.36,153.17"/>
    </edge>
    <edge id=":17_8" function="internal">
        <lane id=":17_8_0" index="0" speed="13.90" length="21.75" width="5.38" shape="70.86,152.74 64.96,151.89 60.74,149.37 58.22,145.15 57.37,139.25"/>
    </edge>
    <edge id=":17_9" function="internal">
        <lane id=":17_9_0" index="0" speed="13.90" length="8.00" width="5.38" shape="70.86,152.74 68.81,151.37 68.12,150.00 68.81,148.63 70.86,147.26"/>
    </edge>
    <edge id=":17_10" function="internal">
        <lane id=":17_10_0" index="0" speed="13.90" length="4.09" width="5.38" shape="68.32,139.25 68.48,140.36 68.96,141.15 69.75,141.63 70.86,141.79"/>
    </edge>
    <edge id=":17_11" function="internal">
        <lane id=":17_11_0" index="0" speed="13.90" length="21.50" width="5.38" shape="68.32,139.25 67.90,160.75"/>
        <lane id=":17_11_1" index="1" speed="13.90" length="21.50" width="5.38" shape="62.85,139.25 62.42,160.75"/>
    </edge>
    <edge id=":17_13" function="internal">
        <lane id=":17_13_0" index="0" speed="13.90" length="10.73" width="5.38" shape="62.85,139.25 62.00,145.59 59.86,149.35"/>
    </edge>
    <edge id=":17_14" function="internal">
        <lane id=":17_14_0" index="0" speed="13.90" length="4.11" width="5.38" shape="62.85,139.25 61.48,141.30 60.11,141.99 60.01,141.94"/>
    </edge>
    <edge id=":17_22" function="internal">
        <lane id=":17_22_0" index="0" speed="13.90" length="11.62" width="5.38" shape="59.86,149.35 59.48,150.02 55.26,152.55 49.36,153.17"/>
    </edge>
    <edge id=":17_23" function="internal">
        <lane id=":17_23_0" index="0" speed="13.90" length="3.88" width="5.38" shape="60.01,141.94 58.74,141.30 57.37,139.25"/>
    </edge>
    <edge id=":17_15" function="internal">
        <lane id=":17_15_0" index="0" speed="13.90" length="4.48" width="5.38" shape="49.36,142.21 50.47,142.07 51.26,141.53 51.74,140.59 51.90,139.25"/>
    </edge>
    <edge id=":17_16" function="internal">
        <lane id=":17_16_0" index="0" speed="13.90" length="21.50" width="5.38" shape="49.36,142.21 70.86,141.79"/>
        <lane id=":17_16_1" index="1" speed="13.90" length="21.50" width="5.38" shape="49.36,147.69 70.86,147.26"/>
    </edge>
    <edge id=":17_18" function="internal">
        <lane id=":17_18_0" index="0" speed="13.90" length="20.64" width="5.38" shape="49.36,147.69 54.84,148.73 58.85,151.26 61.37,155.27 62.42,160.75"/>
    </edge>
    <edge id=":17_19" function="internal">
        <lane id=":17_19_0" index="0" speed="13.90" length="8.01" width="5.38" shape="49.36,147.69 51.42,149.06 52.10,150.43 51.42,151.80 49.36,153.17"/>
    </edge>
    <edge id=":18_0" function="internal">
        <lane id=":18_0_0" index="0" speed="13.90" length="0.54" width="5.38" shape="100.75,218.21 100.07,218.20"/>
        <lane id=":18_0_1" index="1" speed="13.90" length="0.54" width="5.38" shape="100.75,212.74 100.34,212.73"/>
    </edge>
    <edge id=":18_2" function="internal">
        <lane id=":18_2_0" index="0" speed="13.90" length="4.00" width="5.38" shape="100.75,212.74 98.69,211.37 98.01,210.00"/>
    </edge>
    <edge id=":18_6" function="internal">
        <lane id=":18_6_0" index="0" speed="13.90" length="4.00" width="5.38" shape="98.01,210.00 98.69,208.63 100.75,207.26"/>
    </edge>
    <edge id=":18_3" function="internal">
        <lane id=":18_3_0" index="0" speed="13.90" length="0.13" width="5.38" shape="100.88,201.79 100.75,201.79"/>
        <lane id=":18_3_1" index="1" speed="13.90" length="0.13" width="5.38" shape="100.61,207.26 100.75,207.26"/>
    </edge>
    <edge id=":18_5" function="internal">
        <lane id=":18_5_0" index="0" speed="13.90" length="4.00" width="5.38" shape="100.61,207.26 102.59,208.73 103.21,210.13"/>
    </edge>
    <edge id=":18_7" function="internal">
        <lane id=":18_7_0" index="0" speed="13.90" length="4.00" width="5.38" shape="103.21,210.13 102.46,211.46 100.34,212.73"/>
    </edge>
    <edge id=":19_0" function="internal">
        <lane id=":19_0_0" index="0" speed="13.90" length="0.54" width="5.38" shape="170.15,218.20 169.47,218.21"/>
        <lane id=":19_0_1" index="1" speed="13.90" length="0.54" width="5.38" shape="169.88,212.73 169.47,212.74"/>
    </edge>
    <edge id=":19_2" function="internal">
        <lane id=":19_2_0" index="0" speed="13.90" length="4.00" width="5.38" shape="169.88,212.73 167.76,211.46 167.01,210.13"/>
    </edge>
    <edge id=":19_6" function="internal">
        <lane id=":19_6_0" index="0" speed="13.90" length="4.00" width="5.38" shape="167.01,210.13 167.63,208.73 169.61,207.26"/>
    </edge>
    <edge id=":19_3" function="internal">
        <lane id=":19_3_0" index="0" speed="13.90" length="0.13" width="5.38" shape="169.47,201.79 169.34,201.79"/>
        <lane id=":19_3_1" index="1" speed="13.90" length="0.13" width="5.38" shape="169.47,207.26 169.61,207.26"/>
    </edge>
    <edge id=":19_5" function="internal">
        <lane id=":19_5_0" index="0" speed="13.90" length="4.00" width="5.38" shape="169.47,207.26 171.53,208.63 172.21,210.00"/>
    </edge>
    <edge id=":19_7" function="internal">
        <lane id=":19_7_0" index="0" speed="13.90" length="4.00" width="5.38" shape="172.21,210.00 171.53,211.37 169.47,212.74"/>
    </edge>
    <edge id=":20_0" function="internal">
        <lane id=":20_0_0" index="0" speed="13.90" length="0.54" width="5.38" shape="218.32,169.36 218.31,170.04"/>
        <lane id=":20_0_1" index="1" speed="13.90" length="0.54" width="5.38" shape="212.85,169.36 212.84,169.77"/>
    </edge>
    <edge id=":20_2" function="internal">
        <lane id=":20_2_0" index="0" speed="13.90" length="4.00" width="5.38" shape="212.85,169.36 211.48,171.42 210.11,172.10"/>
    </edge>
    <edge id=":20_6" function="internal">
        <lane id=":20_6_0" index="0" speed="13.90" length="4.00" width="5.38" shape="210.11,172.10 208.74,171.42 207.37,169.36"/>
    </edge>
    <edge id=":20_3" function="internal">
        <lane id=":20_3_0" index="0" speed="13.90" length="0.13" width="5.38" shape="201.90,169.23 201.90,169.36"/>
        <lane id=":20_3_1" index="1" speed="13.90" length="0.13" width="5.38" shape="207.37,169.50 207.37,169.36"/>
    </edge>
    <edge id=":20_5" function="internal">
        <lane id=":20_5_0" index="0" speed="13.90" length="4.00" width="5.38" shape="207.37,169.50 208.84,167.52 210.24,166.90"/>
    </edge>
    <edge id=":20_7" function="internal">
        <lane id=":20_7_0" index="0" speed="13.90" length="4.00" width="5.38" shape="210.24,166.90 211.57,167.65 212.84,169.77"/>
    </edge>
    <edge id=":21_0" function="internal">
        <lane id=":21_0_0" index="0" speed="13.90" length="0.13" width="5.38" shape="201.90,100.64 201.90,100.77"/>
        <lane id=":21_0_1" index="1" speed="13.90" length="0.13" width="5.38" shape="207.37,100.64 207.37,100.50"/>
    </edge>
    <edge id=":21_2" function="internal">
        <lane id=":21_2_0" index="0" speed="13.90" length="4.00" width="5.38" shape="207.37,100.64 208.74,98.58 210.11,97.90"/>
    </edge>
    <edge id=":21_6" function="internal">
        <lane id=":21_6_0" index="0" speed="13.90" length="4.00" width="5.38" shape="210.11,97.90 211.48,98.58 212.85,100.64"/>
    </edge>
    <edge id=":21_3" function="internal">
        <lane id=":21_3_0" index="0" speed="13.90" length="0.54" width="5.38" shape="218.31,99.96 218.32,100.64"/>
        <lane id=":21_3_1" index="1" speed="13.90" length="0.54" width="5.38" shape="212.84,100.23 212.85,100.64"/>
    </edge>
    <edge id=":21_5" function="internal">
        <lane id=":21_5_0" index="0" speed="13.90" length="4.00" width="5.38" shape="212.84,100.23 211.57,102.35 210.24,103.10"/>
    </edge>
    <edge id=":21_7" function="internal">
        <lane id=":21_7_0" index="0" speed="13.90" length="4.00" width="5.38" shape="210.24,103.10 208.84,102.48 207.37,100.50"/>
    </edge>
    <edge id=":22_0" function="internal">
        <lane id=":22_0_0" index="0" speed="13.90" length="0.13" width="5.38" shape="109.32,8.21 109.44,8.21"/>
        <lane id=":22_0_1" index="1" speed="13.90" length="0.13" width="5.38" shape="109.58,2.74 109.44,2.74"/>
    </edge>
    <edge id=":22_2" function="internal">
        <lane id=":22_2_0" index="0" speed="13.90" length="4.00" width="5.38" shape="109.58,2.74 107.59,1.28 106.98,-0.12"/>
    </edge>
    <edge id=":22_6" function="internal">
        <lane id=":22_6_0" index="0" speed="13.90" length="4.00" width="5.38" shape="106.98,-0.12 107.72,-1.46 109.84,-2.73"/>
    </edge>
    <edge id=":22_3" function="internal">
        <lane id=":22_3_0" index="0" speed="13.90" length="0.53" width="5.38" shape="109.44,-8.21 110.10,-8.20"/>
        <lane id=":22_3_1" index="1" speed="13.90" length="0.53" width="5.38" shape="109.44,-2.74 109.84,-2.73"/>
    </edge>
    <edge id=":22_5" function="internal">
        <lane id=":22_5_0" index="0" speed="13.90" length="4.00" width="5.38" shape="109.44,-2.74 111.50,-1.37 112.18,0.00"/>
    </edge>
    <edge id=":22_7" function="internal">
        <lane id=":22_7_0" index="0" speed="13.90" length="4.00" width="5.38" shape="112.18,0.00 111.50,1.37 109.44,2.74"/>
    </edge>
    <edge id=":23_0" function="internal">
        <lane id=":23_0_0" index="0" speed="13.90" length="0.13" width="5.38" shape="40.75,8.21 40.88,8.21"/>
        <lane id=":23_0_1" index="1" speed="13.90" length="0.13" width="5.38" shape="40.75,2.74 40.61,2.74"/>
    </edge>
    <edge id=":23_2" function="internal">
        <lane id=":23_2_0" index="0" speed="13.90" length="4.00" width="5.38" shape="40.75,2.74 38.69,1.37 38.01,0.00"/>
    </edge>
    <edge id=":23_6" function="internal">
        <lane id=":23_6_0" index="0" speed="13.90" length="4.00" width="5.38" shape="38.01,0.00 38.69,-1.37 40.75,-2.74"/>
    </edge>
    <edge id=":23_3" function="internal">
        <lane id=":23_3_0" index="0" speed="13.90" length="0.54" width="5.38" shape="40.07,-8.20 40.75,-8.21"/>
        <lane id=":23_3_1" index="1" speed="13.90" length="0.54" width="5.38" shape="40.34,-2.73 40.75,-2.74"/>
    </edge>
    <edge id=":23_5" function="internal">
        <lane id=":23_5_0" index="0" speed="13.90" length="4.00" width="5.38" shape="40.34,-2.73 42.46,-1.46 43.21,-0.13"/>
    </edge>
    <edge id=":23_7" function="internal">
        <lane id=":23_7_0" index="0" speed="13.90" length="4.00" width="5.38" shape="43.21,-0.13 42.59,1.27 40.61,2.74"/>
    </edge>
    <edge id=":24_0" function="internal">
        <lane id=":24_0_0" index="0" speed="13.90" length="2.72" width="5.38" shape="-8.21,42.95 -8.09,40.10"/>
        <lane id=":24_0_1" index="1" speed="13.90" length="2.72" width="5.38" shape="-2.73,42.95 -2.62,40.37"/>
    </edge>
    <edge id=":24_2" function="internal">
        <lane id=":24_2_0" index="0" speed="13.90" length="4.00" width="5.38" shape="-2.73,42.95 -1.37,40.89 -0.00,40.20"/>
    </edge>
    <edge id=":24_6" function="internal">
        <lane id=":24_6_0" index="0" speed="13.90" length="4.00" width="5.38" shape="-0.00,40.20 1.37,40.89 2.74,42.94"/>
    </edge>
    <edge id=":24_3" function="internal">
        <lane id=":24_3_0" index="0" speed="13.90" length="2.16" width="5.38" shape="8.31,40.90 8.22,42.93"/>
        <lane id=":24_3_1" index="1" speed="13.90" length="2.16" width="5.38" shape="2.84,40.64 2.74,42.94"/>
    </edge>
    <edge id=":24_5" function="internal">
        <lane id=":24_5_0" index="0" speed="13.90" length="4.00" width="5.38" shape="2.84,40.64 1.38,42.62 -0.02,43.24"/>
    </edge>
    <edge id=":24_7" function="internal">
        <lane id=":24_7_0" index="0" speed="13.90" length="4.00" width="5.38" shape="-0.02,43.24 -1.36,42.49 -2.62,40.37"/>
    </edge>
    <edge id=":25_0" function="internal">
        <lane id=":25_0_0" index="0" speed="13.90" length="0.53" width="5.38" shape="-8.09,110.04 -8.10,109.38"/>
        <lane id=":25_0_1" index="1" speed="13.90" length="0.53" width="5.38" shape="-2.62,109.77 -2.63,109.37"/>
    </edge>
    <edge id=":25_2" function="internal">
        <lane id=":25_2_0" index="0" speed="13.90" length="4.00" width="5.38" shape="-2.62,109.77 -1.35,107.65 -0.02,106.90"/>
    </edge>
    <edge id=":25_6" function="internal">
        <lane id=":25_6_0" index="0" speed="13.90" length="4.00" width="5.38" shape="-0.02,106.90 1.38,107.52 2.85,109.50"/>
    </edge>
    <edge id=":25_3" function="internal">
        <lane id=":25_3_0" index="0" speed="13.90" length="0.13" width="5.38" shape="8.32,109.35 8.32,109.23"/>
        <lane id=":25_3_1" index="1" speed="13.90" length="0.13" width="5.38" shape="2.85,109.36 2.85,109.50"/>
    </edge>
    <edge id=":25_5" function="internal">
        <lane id=":25_5_0" index="0" speed="13.90" length="4.00" width="5.38" shape="2.85,109.36 1.48,111.42 0.11,112.10"/>
    </edge>
    <edge id=":25_7" function="internal">
        <lane id=":25_7_0" index="0" speed="13.90" length="4.00" width="5.38" shape="0.11,112.10 -1.26,111.42 -2.63,109.37"/>
    </edge>
    <edge id=":26_0" function="internal">
        <lane id=":26_0_0" index="0" speed="13.90" length="0.54" width="5.38" shape="51.90,100.64 51.91,99.96"/>
        <lane id=":26_0_1" index="1" speed="13.90" length="0.54" width="5.38" shape="57.37,100.64 57.38,100.23"/>
    </edge>
    <edge id=":26_2" function="internal">
        <lane id=":26_2_0" index="0" speed="13.90" length="4.00" width="5.38" shape="57.37,100.64 58.74,98.58 60.11,97.90"/>
    </edge>
    <edge id=":26_6" function="internal">
        <lane id=":26_6_0" index="0" speed="13.90" length="4.00" width="5.38" shape="60.11,97.90 61.48,98.58 62.85,100.64"/>
    </edge>
    <edge id=":26_3" function="internal">
        <lane id=":26_3_0" index="0" speed="13.90" length="0.13" width="5.38" shape="68.32,100.77 68.32,100.64"/>
        <lane id=":26_3_1" index="1" speed="13.90" length="0.13" width="5.38" shape="62.85,100.50 62.85,100.64"/>
    </edge>
    <edge id=":26_5" function="internal">
        <lane id=":26_5_0" index="0" speed="13.90" length="4.00" width="5.38" shape="62.85,100.50 61.38,102.48 59.98,103.10"/>
    </edge>
    <edge id=":26_7" function="internal">
        <lane id=":26_7_0" index="0" speed="13.90" length="4.00" width="5.38" shape="59.98,103.10 58.65,102.35 57.38,100.23"/>
    </edge>
    <edge id=":27_0" function="internal">
        <lane id=":27_0_0" index="0" speed="13.90" length="0.13" width="5.38" shape="100.75,68.21 100.88,68.21"/>
        <lane id=":27_0_1" index="1" speed="13.90" length="0.13" width="5.38" shape="100.75,62.74 100.61,62.74"/>
    </edge>
    <edge id=":27_2" function="internal">
        <lane id=":27_2_0" index="0" speed="13.90" length="4.00" width="5.38" shape="100.75,62.74 98.69,61.37 98.01,60.00"/>
    </edge>
    <edge id=":27_6" function="internal">
        <lane id=":27_6_0" index="0" speed="13.90" length="4.00" width="5.38" shape="98.01,60.00 98.69,58.63 100.75,57.26"/>
    </edge>
    <edge id=":27_3" function="internal">
        <lane id=":27_3_0" index="0" speed="13.90" length="0.54" width="5.38" shape="100.07,51.80 100.75,51.79"/>
        <lane id=":27_3_1" index="1" speed="13.90" length="0.54" width="5.38" shape="100.34,57.27 100.75,57.26"/>
    </edge>
    <edge id=":27_5" function="internal">
        <lane id=":27_5_0" index="0" speed="13.90" length="4.00" width="5.38" shape="100.34,57.27 102.46,58.54 103.21,59.87"/>
    </edge>
    <edge id=":27_7" function="internal">
        <lane id=":27_7_0" index="0" speed="13.90" length="4.00" width="5.38" shape="103.21,59.87 102.59,61.27 100.61,62.74"/>
    </edge>
    <edge id=":28_0" function="internal">
        <lane id=":28_0_0" index="0" speed="13.90" length="0.54" width="5.38" shape="158.32,109.36 158.31,110.04"/>
        <lane id=":28_0_1" index="1" speed="13.90" length="0.54" width="5.38" shape="152.85,109.36 152.84,109.77"/>
    </edge>
    <edge id=":28_2" function="internal">
        <lane id=":28_2_0" index="0" speed="13.90" length="4.00" width="5.38" shape="152.85,109.36 151.48,111.42 150.11,112.10"/>
    </edge>
    <edge id=":28_6" function="internal">
        <lane id=":28_6_0" index="0" speed="13.90" length="4.00" width="5.38" shape="150.11,112.10 148.74,111.42 147.37,109.36"/>
    </edge>
    <edge id=":28_3" function="internal">
        <lane id=":28_3_0" index="0" speed="13.90" length="0.13" width="5.38" shape="141.90,109.23 141.90,109.36"/>
        <lane id=":28_3_1" index="1" speed="13.90" length="0.13" width="5.38" shape="147.37,109.50 147.37,109.36"/>
    </edge>
    <edge id=":28_5" function="internal">
        <lane id=":28_5_0" index="0" speed="13.90" length="4.00" width="5.38" shape="147.37,109.50 148.84,107.52 150.24,106.90"/>
    </edge>
    <edge id=":28_7" function="internal">
        <lane id=":28_7_0" index="0" speed="13.90" length="4.00" width="5.38" shape="150.24,106.90 151.57,107.65 152.84,109.77"/>
    </edge>
    <edge id=":29_0" function="internal">
        <lane id=":29_0_0" index="0" speed="13.90" length="0.54" width="5.38" shape="110.15,158.20 109.47,158.21"/>
        <lane id=":29_0_1" index="1" speed="13.90" length="0.54" width="5.38" shape="109.88,152.73 109.47,152.74"/>
    </edge>
    <edge id=":29_2" function="internal">
        <lane id=":29_2_0" index="0" speed="13.90" length="4.00" width="5.38" shape="109.88,152.73 107.76,151.46 107.01,150.13"/>
    </edge>
    <edge id=":29_6" function="internal">
        <lane id=":29_6_0" index="0" speed="13.90" length="4.00" width="5.38" shape="107.01,150.13 107.63,148.73 109.61,147.26"/>
    </edge>
    <edge id=":29_3" function="internal">
        <lane id=":29_3_0" index="0" speed="13.90" length="0.13" width="5.38" shape="109.47,141.79 109.34,141.79"/>
        <lane id=":29_3_1" index="1" speed="13.90" length="0.13" width="5.38" shape="109.47,147.26 109.61,147.26"/>
    </edge>
    <edge id=":29_5" function="internal">
        <lane id=":29_5_0" index="0" speed="13.90" length="4.00" width="5.38" shape="109.47,147.26 111.53,148.63 112.21,150.00"/>
    </edge>
    <edge id=":29_7" function="internal">
        <lane id=":29_7_0" index="0" speed="13.90" length="4.00" width="5.38" shape="112.21,150.00 111.53,151.37 109.47,152.74"/>
    </edge>

    <edge id="-0" from="17" to="25" priority="-1" shape="40.61,150.00 36.64,149.80 32.71,149.22 28.85,148.26 25.11,146.92 21.52,145.22 18.11,143.17 14.92,140.81 11.97,138.14 9.30,135.19 6.94,132.00 4.89,128.59 3.19,125.00 1.85,121.26 0.89,117.40 0.30,113.47 0.11,109.50">
        <lane id="-0_0" index="0" speed="13.90" length="80.56" width="5.38" shape="49.36,158.65 35.83,157.99 31.10,157.29 26.47,156.12 21.96,154.51 17.64,152.47 13.54,150.01 9.70,147.16 6.16,143.95 2.95,140.41 0.10,136.57 -2.36,132.47 -4.40,128.15 -6.01,123.64 -7.18,119.01 -7.88,114.28 -8.09,110.04"/>
        <lane id="-0_1" index="1" speed="13.90" length="80.56" width="5.38" shape="49.36,153.17 36.37,152.53 32.17,151.91 28.06,150.88 24.06,149.45 20.23,147.63 16.59,145.45 13.18,142.93 10.03,140.08 7.18,136.93 4.66,133.52 2.47,129.88 0.66,126.05 -0.77,122.05 -1.80,117.94 -2.42,113.74 -2.62,109.77"/>
    </edge>
    <edge id="-1" from="24" to="25" priority="-1" shape="0.00,40.50 0.11,109.50">
        <lane id="-1_0" index="0" speed="13.90" length="66.43" width="5.38" shape="8.22,42.93 8.32,109.35"/>
        <lane id="-1_1" index="1" speed="13.90" length="66.43" width="5.38" shape="2.74,42.94 2.85,109.36"/>
    </edge>
    <edge id="-10" from="16" to="27" priority="-1" shape="130.61,60.00 100.61,60.00">
        <lane id="-10_0" index="0" speed="13.90" length="38.61" width="5.38" shape="139.36,68.21 100.75,68.21"/>
        <lane id="-10_1" index="1" speed="13.90" length="38.61" width="5.38" shape="139.36,62.74 100.75,62.74"/>
    </edge>
    <edge id="-11" from="16" to="21" priority="-1" shape="169.61,60.00 173.58,60.19 177.51,60.78 181.37,61.74 185.11,63.08 188.70,64.78 192.11,66.83 195.30,69.19 198.25,71.86 200.92,74.81 203.28,78.00 205.33,81.41 207.03,85.00 208.37,88.74 209.33,92.60 209.91,96.53 210.11,100.50">
        <lane id="-11_0" index="0" speed="13.90" length="80.55" width="5.38" shape="160.86,51.35 174.38,52.01 179.11,52.71 183.75,53.88 188.25,55.49 192.58,57.53 196.68,59.99 200.52,62.84 204.06,66.05 207.27,69.59 210.12,73.43 212.58,77.53 214.62,81.85 216.23,86.36 217.40,90.99 218.10,95.72 218.31,99.96"/>
        <lane id="-11_1" index="1" speed="13.90" length="80.55" width="5.38" shape="160.86,56.83 173.85,57.47 178.05,58.09 182.16,59.12 186.16,60.55 189.99,62.36 193.63,64.55 197.04,67.07 200.19,69.92 203.04,73.07 205.56,76.48 207.74,80.12 209.56,83.95 210.99,87.95 212.02,92.06 212.64,96.26 212.84,100.23"/>
    </edge>
    <edge id="-12" from="20" to="21" priority="-1" shape="210.11,169.50 210.11,100.50">
        <lane id="-12_0" index="0" speed="13.90" length="68.73" width="5.38" shape="201.90,169.36 201.90,100.64"/>
        <lane id="-12_1" index="1" speed="13.90" length="68.73" width="5.38" shape="207.37,169.36 207.37,100.64"/>
    </edge>
    <edge id="-13" from="20" to="19" priority="-1" shape="210.11,169.50 209.91,173.47 209.33,177.40 208.37,181.26 207.03,185.00 205.33,188.59 203.28,192.00 200.92,195.19 198.25,198.14 195.30,200.81 192.11,203.17 188.70,205.22 185.11,206.92 181.37,208.26 177.51,209.22 173.58,209.80 169.61,210.00">
        <lane id="-13_0" index="0" speed="13.90" length="71.39" width="5.38" shape="218.31,170.04 218.10,174.28 217.40,179.01 216.23,183.64 214.62,188.15 212.58,192.47 210.12,196.57 207.27,200.41 204.06,203.95 200.52,207.16 196.68,210.01 192.58,212.47 188.25,214.51 183.75,216.12 179.11,217.29 174.39,217.99 170.15,218.20"/>
        <lane id="-13_1" index="1" speed="13.90" length="71.39" width="5.38" shape="212.84,169.77 212.64,173.74 212.02,177.94 210.99,182.05 209.56,186.05 207.74,189.88 205.56,193.52 203.04,196.93 200.19,200.08 197.04,202.93 193.63,205.45 189.99,207.63 186.16,209.45 182.16,210.88 178.05,211.91 173.85,212.53 169.88,212.73"/>
    </edge>
    <edge id="-14" from="18" to="19" priority="-1" shape="100.61,210.00 169.61,210.00">
        <lane id="-14_0" index="0" speed="13.90" length="68.73" width="5.38" shape="100.75,201.79 169.47,201.79"/>
        <lane id="-14_1" index="1" speed="13.90" length="68.73" width="5.38" shape="100.75,207.26 169.47,207.26"/>
    </edge>
    <edge id="-15" from="18" to="17" priority="-1" shape="100.61,210.00 96.64,209.80 92.71,209.22 88.85,208.26 85.11,206.92 81.52,205.22 78.11,203.17 74.92,200.81 71.97,198.14 69.30,195.19 66.94,192.00 64.89,188.59 63.19,185.00 61.85,181.26 60.89,177.40 60.30,173.47 60.11,169.50">
        <lane id="-15_0" index="0" speed="13.90" length="80.55" width="5.38" shape="100.07,218.20 95.83,217.99 91.10,217.29 86.47,216.12 81.96,214.51 77.64,212.47 73.54,210.01 69.70,207.16 66.16,203.95 62.95,200.41 60.10,196.57 57.64,192.47 55.60,188.15 53.99,183.64 52.82,179.01 52.12,174.28 51.46,160.75"/>
        <lane id="-15_1" index="1" speed="13.90" length="80.55" width="5.38" shape="100.34,212.73 96.37,212.53 92.17,211.91 88.06,210.88 84.06,209.45 80.23,207.63 76.59,205.45 73.18,202.93 70.03,200.08 67.18,196.93 64.66,193.52 62.47,189.88 60.66,186.05 59.23,182.05 58.20,177.94 57.58,173.74 56.94,160.75"/>
    </edge>