<?xml version='1.0' encoding='UTF-8'?>
<edges>
  <edge id="1" from="25" to="24" numLanes="2" width="5.375" shape="4.500000,105.000000 -64.500000,104.999747 "/>
  <edge id="-1" to="25" from="24" numLanes="2" width="5.375" shape="-64.500000,104.999747 4.500000,105.000000 "/>
  <edge id="3" from="23" to="22" numLanes="2" width="5.375" shape="-105.000000,64.500000 -104.999493,-4.500000 "/>
  <edge id="-3" to="23" from="22" numLanes="2" width="5.375" shape="-104.999493,-4.500000 -105.000000,64.500000 "/>
  <edge id="5" from="28" to="16" numLanes="2" width="5.375" shape="4.500000,-45.000000 -25.500000,-45.000110 "/>
  <edge id="-5" to="28" from="16" numLanes="2" width="5.375" shape="-25.500000,-45.000110 4.500000,-45.000000 "/>
  <edge id="7" from="17" to="29" numLanes="2" width="5.375" shape="45.000000,25.500000 45.000220,-4.500000 "/>
  <edge id="-7" to="17" from="29" numLanes="2" width="5.375" shape="45.000220,-4.500000 45.000000,25.500000 "/>
  <edge id="8" from="17" to="26" numLanes="2" width="5.375" shape="25.500000,45.000000 -4.500000,44.999731 "/>
  <edge id="-8" to="17" from="26" numLanes="2" width="5.375" shape="-4.500000,44.999731 25.500000,45.000000 "/>
  <edge id="10" from="27" to="16" numLanes="2" width="5.375" shape="-45.000000,4.500000 -44.999620,-25.500000 "/>
  <edge id="-10" to="27" from="16" numLanes="2" width="5.375" shape="-44.999620,-25.500000 -45.000000,4.500000 "/>
  <edge id="12" from="21" to="20" numLanes="2" width="5.375" shape="-4.500000,-105.000000 64.500000,-104.999563 "/>
  <edge id="-12" to="21" from="20" numLanes="2" width="5.375" shape="64.500000,-104.999563 -4.500000,-105.000000 "/>
  <edge id="14" from="19" to="18" numLanes="2" width="5.375" shape="105.000000,-64.500000 105.000000,4.500000 "/>
  <edge id="-14" to="19" from="18" numLanes="2" width="5.375" shape="105.000000,4.500000 105.000000,-64.500000 "/>
  <edge id="0" from="25" to="17" numLanes="2" width="5.375" shape="4.499959,105.000000 8.469662,104.804985 12.401136,104.221808 16.256517,103.256087 19.998675,101.917123 23.591572,100.217809 27.000606,98.174511 30.192946,95.806908 33.137848,93.137801 35.806950,90.192895 38.174548,87.000551 40.217840,83.591514 41.917148,79.998614 43.256107,76.256453 44.221821,72.401071 44.804991,68.469596 45.000000,64.499893 "/>
  <edge id="-0" to="25" from="17" numLanes="2" width="5.375" shape="45.000000,64.499893 44.804991,68.469596 44.221821,72.401071 43.256107,76.256453 41.917148,79.998614 40.217840,83.591514 38.174548,87.000551 35.806950,90.192895 33.137848,93.137801 30.192946,95.806908 27.000606,98.174511 23.591572,100.217809 19.998675,101.917123 16.256517,103.256087 12.401136,104.221808 8.469662,104.804985 4.499959,105.000000 "/>
  <edge id="2" from="23" to="24" numLanes="2" width="5.375" shape="-105.000000,64.500000 -104.804981,68.469703 -104.221800,72.401176 -103.256076,76.256556 -101.917107,79.998713 -100.217789,83.591609 -98.174488,87.000641 -95.806882,90.192978 -93.137772,93.137877 -90.192863,95.806976 -87.000517,98.174571 -83.591478,100.217859 -79.998576,101.917164 -76.256414,103.256119 -72.401030,104.221829 -68.469555,104.804995 -64.499851,105.000000 "/>
  <edge id="-2" to="23" from="24" numLanes="2" width="5.375" shape="-64.499851,105.000000 -68.469555,104.804995 -72.401030,104.221829 -76.256414,103.256119 -79.998576,101.917164 -83.591478,100.217859 -87.000517,98.174571 -90.192863,95.806976 -93.137772,93.137877 -95.806882,90.192978 -98.174488,87.000641 -100.217789,83.591609 -101.917107,79.998713 -103.256076,76.256556 -104.221800,72.401176 -104.804981,68.469703 -105.000000,64.500000 "/>
  <edge id="4" from="16" to="22" numLanes="2" width="5.375" shape="-64.499851,-45.000000 -68.469555,-44.804995 -72.401030,-44.221829 -76.256414,-43.256119 -79.998576,-41.917164 -83.591478,-40.217859 -87.000517,-38.174571 -90.192863,-35.806976 -93.137772,-33.137877 -95.806882,-30.192978 -98.174488,-27.000641 -100.217789,-23.591609 -101.917107,-19.998713 -103.256076,-16.256556 -104.221800,-12.401176 -104.804981,-8.469703 -105.000000,-4.500000 "/>
  <edge id="-4" to="16" from="22" numLanes="2" width="5.375" shape="-105.000000,-4.500000 -104.804981,-8.469703 -104.221800,-12.401176 -103.256076,-16.256556 -101.917107,-19.998713 -100.217789,-23.591609 -98.174488,-27.000641 -95.806882,-30.192978 -93.137772,-33.137877 -90.192863,-35.806976 -87.000517,-38.174571 -83.591478,-40.217859 -79.998576,-41.917164 -76.256414,-43.256119 -72.401030,-44.221829 -68.469555,-44.804995 -64.499851,-45.000000 "/>
  <edge id="6" from="29" to="28" numLanes="2" width="5.375" shape="45.000000,-4.499702 44.805010,-8.469407 44.221858,-12.400884 43.256162,-16.256271 41.917221,-19.998438 40.217930,-23.591346 38.174654,-27.000393 35.807071,-30.192748 33.137982,-33.137667 30.193093,-35.806788 27.000765,-38.174406 23.591740,-40.217719 19.998851,-41.917050 16.256698,-43.256032 12.401322,-44.221771 8.469851,-44.804966 4.500149,-45.000000 "/>
  <edge id="-6" to="29" from="28" numLanes="2" width="5.375" shape="4.500149,-45.000000 8.469851,-44.804966 12.401322,-44.221771 16.256698,-43.256032 19.998851,-41.917050 23.591740,-40.217719 27.000765,-38.174406 30.193093,-35.806788 33.137982,-33.137667 35.807071,-30.192748 38.174654,-27.000393 40.217930,-23.591346 41.917221,-19.998438 43.256162,-16.256271 44.221858,-12.400884 44.805010,-8.469407 45.000000,-4.499702 "/>
  <edge id="9" from="27" to="26" numLanes="2" width="5.375" shape="-45.000000,4.500000 -44.804981,8.469703 -44.221800,12.401176 -43.256076,16.256556 -41.917107,19.998713 -40.217789,23.591609 -38.174488,27.000641 -35.806882,30.192978 -33.137772,33.137877 -30.192863,35.806976 -27.000517,38.174571 -23.591478,40.217859 -19.998576,41.917164 -16.256414,43.256119 -12.401030,44.221829 -8.469555,44.804995 -4.499851,45.000000 "/>
  <edge id="-9" to="27" from="26" numLanes="2" width="5.375" shape="-4.499851,45.000000 -8.469555,44.804995 -12.401030,44.221829 -16.256414,43.256119 -19.998576,41.917164 -23.591478,40.217859 -27.000517,38.174571 -30.192863,35.806976 -33.137772,33.137877 -35.806882,30.192978 -38.174488,27.000641 -40.217789,23.591609 -41.917107,19.998713 -43.256076,16.256556 -44.221800,12.401176 -44.804981,8.469703 -45.000000,4.500000 "/>
  <edge id="11" from="21" to="16" numLanes="2" width="5.375" shape="-4.499851,-105.000000 -8.469555,-104.804995 -12.401030,-104.221829 -16.256414,-103.256119 -19.998576,-101.917164 -23.591478,-100.217859 -27.000517,-98.174571 -30.192863,-95.806976 -33.137772,-93.137877 -35.806882,-90.192978 -38.174488,-87.000641 -40.217789,-83.591609 -41.917107,-79.998713 -43.256076,-76.256556 -44.221800,-72.401176 -44.804981,-68.469703 -45.000000,-64.500000 "/>
  <edge id="-11" to="21" from="16" numLanes="2" width="5.375" shape="-45.000000,-64.500000 -44.804981,-68.469703 -44.221800,-72.401176 -43.256076,-76.256556 -41.917107,-79.998713 -40.217789,-83.591609 -38.174488,-87.000641 -35.806882,-90.192978 -33.137772,-93.137877 -30.192863,-95.806976 -27.000517,-98.174571 -23.591478,-100.217859 -19.998576,-101.917164 -16.256414,-103.256119 -12.401030,-104.221829 -8.469555,-104.804995 -4.499851,-105.000000 "/>
  <edge id="13" from="19" to="20" numLanes="2" width="5.375" shape="105.000000,-64.499702 104.805010,-68.469407 104.221858,-72.400884 103.256162,-76.256271 101.917221,-79.998438 100.217930,-83.591346 98.174654,-87.000393 95.807071,-90.192748 93.137982,-93.137667 90.193093,-95.806788 87.000765,-98.174406 83.591740,-100.217719 79.998851,-101.917050 76.256698,-103.256032 72.401322,-104.221771 68.469851,-104.804966 64.500149,-105.000000 "/>
  <edge id="-13" to="19" from="20" numLanes="2" width="5.375" shape="64.500149,-105.000000 68.469851,-104.804966 72.401322,-104.221771 76.256698,-103.256032 79.998851,-101.917050 83.591740,-100.217719 87.000765,-98.174406 90.193093,-95.806788 93.137982,-93.137667 95.807071,-90.192748 98.174654,-87.000393 100.217930,-83.591346 101.917221,-79.998438 103.256162,-76.256271 104.221858,-72.400884 104.805010,-68.469407 105.000000,-64.499702 "/>
  <edge id="15" from="17" to="18" numLanes="2" width="5.375" shape="64.499554,45.000000 68.469259,44.805024 72.400739,44.221887 76.256129,43.256205 79.998301,41.917278 83.591215,40.218000 87.000270,38.174736 90.192633,35.807165 93.137562,33.138088 95.806693,30.193208 98.174323,27.000888 100.217649,23.591871 101.916993,19.998988 103.255989,16.256841 104.221742,12.401468 104.804951,8.470000 105.000000,4.500298 "/>
  <edge id="-15" to="17" from="18" numLanes="2" width="5.375" shape="105.000000,4.500298 104.804951,8.470000 104.221742,12.401468 103.255989,16.256841 101.916993,19.998988 100.217649,23.591871 98.174323,27.000888 95.806693,30.193208 93.137562,33.138088 90.192633,35.807165 87.000270,38.174736 83.591215,40.218000 79.998301,41.917278 76.256129,43.256205 72.400739,44.221887 68.469259,44.805024 64.499554,45.000000 "/>
</edges>
