<?xml version='1.0' encoding='UTF-8'?>
<nodes>
  <node id="18" x="105.0" y="4.5001488"/>
  <node id="19" x="105.0" y="-64.499851"/>
  <node id="20" x="64.500074" y="-104.99978"/>
  <node id="21" x="-4.4999256" y="-105.0"/>
  <node id="22" x="-104.99975" y="-4.5"/>
  <node id="23" x="-105.0" y="64.5"/>
  <node id="24" x="-64.499926" y="104.99987"/>
  <node id="25" x="4.4999794" y="105.0"/>
  <node id="26" x="-4.4999256" y="44.999865"/>
  <node id="27" x="-45.0" y="4.5"/>
  <node id="28" x="4.5000744" y="-45.0"/>
  <node id="29" x="45.00011" y="-4.4998512"/>
  <node id="16" x="-45.0" y="-45.0" shape="-55.750002,-55.749998 -55.749998,-34.249998 -34.249998,-34.250002 -34.250002,-55.750002 -55.750002,-55.749998"/>
  <node id="17" x="45.0" y="45.0" shape="34.249998,34.250002 34.250002,55.750002 55.750002,55.749998 55.749998,34.249998 34.249998,34.250002"/>
</nodes>
