<?xml version="1.0" encoding="UTF-8"?>

<!-- generated on Wed Nov  3 11:45:54 2021 by SUMO netconvert Version 0.30.0
<?xml version="1.0" encoding="UTF-8"?>

<configuration xmlns:xsi="http://www.w3.org/2001/XMLSchema-instance" xsi:noNamespaceSchemaLocation="http://sumo.dlr.de/xsd/netconvertConfiguration.xsd">

    <input>
        <node-files value="/home/joachimhgg/webots_develop/resources/sumo_exporter/myMap_net/sumo.nod.xml"/>
        <edge-files value="/home/joachimhgg/webots_develop/resources/sumo_exporter/myMap_net/sumo.edg.xml"/>
    </input>

    <output>
        <output-file value="/home/joachimhgg/webots_develop/resources/sumo_exporter/myMap_net/sumo.net.xml"/>
    </output>
    <processing>
        <no-turnarounds value="true"/>
        <offset.disable-normalization value="true"/>
        <lefthand value="false"/>
        <junctions.corner-detail value="0"/>
        <rectangular-lane-cut value="false"/>
    </processing>

    <visualisation>
        <registry-viewport value="true"/>
    </visualisation>
</configuration>
-->

<net version="0.27" xmlns:xsi="http://www.w3.org/2001/XMLSchema-instance" xsi:noNamespaceSchemaLocation="http://sumo.dlr.de/xsd/net_file.xsd">

    <location netOffset="105.00,105.00" convBoundary="0.00,0.00,210.11,210.00" origBoundary="-105.00,-105.00,105.11,105.00" projParameter="!"/>

    <edge id=":16_0" function="internal">
        <lane id=":16_0_0" index="0" speed="13.90" length="4.86" width="5.38" shape="51.79,70.75 51.63,69.19 51.15,68.11 50.36,67.51 49.25,67.39"/>
    </edge>
    <edge id=":16_1" function="internal">
        <lane id=":16_1_0" index="0" speed="13.90" length="21.56" width="5.38" shape="51.79,70.75 51.50,64.57 50.95,59.98 50.59,55.40 50.86,49.25"/>
        <lane id=":16_1_1" index="1" speed="13.90" length="21.56" width="5.38" shape="57.26,70.75 56.98,64.57 56.44,59.98 56.09,55.40 56.37,49.25"/>
    </edge>
    <edge id=":16_3" function="internal">
        <lane id=":16_3_0" index="0" speed="13.90" length="21.75" width="5.38" shape="57.26,70.75 58.11,64.85 60.63,60.63 64.85,58.11 70.75,57.26"/>
    </edge>
    <edge id=":16_4" function="internal">
        <lane id=":16_4_0" index="0" speed="13.90" length="8.00" width="5.38" shape="57.26,70.75 58.63,68.70 60.00,68.01 61.37,68.70 62.74,70.75"/>
    </edge>
    <edge id=":16_5" function="internal">
        <lane id=":16_5_0" index="0" speed="13.90" length="4.09" width="5.38" shape="70.75,68.21 69.64,68.37 68.85,68.85 68.37,69.64 68.21,70.75"/>
    </edge>
    <edge id=":16_6" function="internal">
        <lane id=":16_6_0" index="0" speed="13.90" length="21.55" width="5.38" shape="70.75,68.21 64.57,67.95 59.98,67.43 55.40,67.11 49.25,67.39"/>
        <lane id=":16_6_1" index="1" speed="13.90" length="21.55" width="5.38" shape="70.75,62.74 64.57,62.47 59.98,61.95 55.40,61.61 49.25,61.89"/>
    </edge>
    <edge id=":16_8" function="internal">
        <lane id=":16_8_0" index="0" speed="13.90" length="12.48" width="5.38" shape="70.75,62.74 63.95,61.89 59.29,59.37 59.12,59.09"/>
    </edge>
    <edge id=":16_9" function="internal">
        <lane id=":16_9_0" index="0" speed="13.90" length="4.18" width="5.38" shape="70.75,62.74 68.70,61.37 68.01,60.00 68.10,59.83"/>
    </edge>
    <edge id=":16_20" function="internal">
        <lane id=":16_20_0" index="0" speed="13.90" length="10.50" width="5.38" shape="59.12,59.09 56.76,55.15 56.37,49.25"/>
    </edge>
    <edge id=":16_21" function="internal">
        <lane id=":16_21_0" index="0" speed="13.90" length="3.81" width="5.38" shape="68.10,59.83 68.70,58.63 70.75,57.26"/>
    </edge>
    <edge id=":16_10" function="internal">
        <lane id=":16_10_0" index="0" speed="13.90" length="4.88" width="5.38" shape="67.37,49.25 67.49,50.36 68.09,51.15 69.18,51.63 70.75,51.79"/>
    </edge>
    <edge id=":16_11" function="internal">
        <lane id=":16_11_0" index="0" speed="13.90" length="21.56" width="5.38" shape="67.37,49.25 67.08,55.40 67.42,59.98 67.94,64.57 68.21,70.75"/>
        <lane id=":16_11_1" index="1" speed="13.90" length="21.56" width="5.38" shape="61.87,49.25 61.58,55.40 61.93,59.98 62.46,64.57 62.74,70.75"/>
    </edge>
    <edge id=":16_13" function="internal">
        <lane id=":16_13_0" index="0" speed="13.90" length="19.60" width="5.38" shape="61.87,49.25 60.65,54.36 58.14,58.16 54.34,60.68 49.25,61.89"/>
    </edge>
    <edge id=":16_14" function="internal">
        <lane id=":16_14_0" index="0" speed="13.90" length="8.04" width="5.38" shape="61.87,49.25 60.49,51.31 59.12,52.00 57.74,51.31 56.37,49.25"/>
    </edge>
    <edge id=":16_15" function="internal">
        <lane id=":16_15_0" index="0" speed="13.90" length="2.52" width="5.38" shape="49.25,50.89 49.90,50.73 50.39,50.40 50.71,49.91 50.86,49.25"/>
    </edge>
    <edge id=":16_16" function="internal">
        <lane id=":16_16_0" index="0" speed="13.90" length="21.56" width="5.38" shape="49.25,50.89 55.40,50.61 59.98,50.97 64.57,51.51 70.75,51.79"/>
        <lane id=":16_16_1" index="1" speed="13.90" length="21.56" width="5.38" shape="49.25,56.39 55.40,56.11 59.98,56.46 64.57,56.99 70.75,57.26"/>
    </edge>
    <edge id=":16_18" function="internal">
        <lane id=":16_18_0" index="0" speed="13.90" length="10.59" width="5.38" shape="49.25,56.39 55.15,56.79 59.16,59.19"/>
    </edge>
    <edge id=":16_19" function="internal">
        <lane id=":16_19_0" index="0" speed="13.90" length="4.02" width="5.38" shape="49.25,56.39 51.31,57.76 52.00,59.14"/>
    </edge>
    <edge id=":16_22" function="internal">
        <lane id=":16_22_0" index="0" speed="13.90" length="12.37" width="5.38" shape="59.16,59.19 59.37,59.31 61.90,63.97 62.74,70.75"/>
    </edge>
    <edge id=":16_23" function="internal">
        <lane id=":16_23_0" index="0" speed="13.90" length="4.02" width="5.38" shape="52.00,59.14 51.31,60.51 49.25,61.89"/>
    </edge>
    <edge id=":17_0" function="internal">
        <lane id=":17_0_0" index="0" speed="13.90" length="2.54" width="5.38" shape="160.75,159.11 160.09,159.27 159.60,159.60 159.27,160.09 159.11,160.75"/>
    </edge>
    <edge id=":17_1" function="internal">
        <lane id=":17_1_0" index="0" speed="13.90" length="21.56" width="5.38" shape="160.75,159.11 154.60,159.39 150.02,159.03 145.43,158.49 139.25,158.21"/>
        <lane id=":17_1_1" index="1" speed="13.90" length="21.56" width="5.38" shape="160.75,153.61 154.60,153.89 150.02,153.54 145.43,153.01 139.25,152.74"/>
    </edge>
    <edge id=":17_3" function="internal">
        <lane id=":17_3_0" index="0" speed="13.90" length="22.96" width="5.38" shape="160.75,153.61 154.85,153.21 150.63,150.69 148.11,146.03 147.26,139.25"/>
    </edge>
    <edge id=":17_4" function="internal">
        <lane id=":17_4_0" index="0" speed="13.90" length="8.03" width="5.38" shape="160.75,153.61 158.69,152.24 158.00,150.86 158.69,149.49 160.75,148.11"/>
    </edge>
    <edge id=":17_5" function="internal">
        <lane id=":17_5_0" index="0" speed="13.90" length="4.86" width="5.38" shape="158.21,139.25 158.37,140.81 158.85,141.89 159.64,142.49 160.75,142.61"/>
    </edge>
    <edge id=":17_6" function="internal">
        <lane id=":17_6_0" index="0" speed="13.90" length="21.56" width="5.38" shape="158.21,139.25 158.49,145.43 159.03,150.02 159.39,154.60 159.11,160.75"/>
        <lane id=":17_6_1" index="1" speed="13.90" length="21.56" width="5.38" shape="152.74,139.25 153.01,145.43 153.54,150.02 153.89,154.60 153.61,160.75"/>
    </edge>
    <edge id=":17_8" function="internal">
        <lane id=":17_8_0" index="0" speed="13.90" length="8.72" width="5.38" shape="152.74,139.25 151.89,145.15 150.48,147.52"/>
    </edge>
    <edge id=":17_9" function="internal">
        <lane id=":17_9_0" index="0" speed="13.90" length="4.00" width="5.38" shape="152.74,139.25 151.37,141.30 150.00,141.99"/>
    </edge>
    <edge id=":17_20" function="internal">
        <lane id=":17_20_0" index="0" speed="13.90" length="13.03" width="5.38" shape="150.48,147.52 149.37,149.37 145.15,151.89 139.25,152.74"/>
    </edge>
    <edge id=":17_21" function="internal">
        <lane id=":17_21_0" index="0" speed="13.90" length="4.00" width="5.38" shape="150.00,141.99 148.63,141.30 147.26,139.25"/>
    </edge>
    <edge id=":17_10" function="internal">
        <lane id=":17_10_0" index="0" speed="13.90" length="4.09" width="5.38" shape="139.25,141.79 140.36,141.63 141.15,141.15 141.63,140.36 141.79,139.25"/>
    </edge>
    <edge id=":17_11" function="internal">
        <lane id=":17_11_0" index="0" speed="13.90" length="21.55" width="5.38" shape="139.25,141.79 145.43,142.05 150.02,142.57 154.60,142.89 160.75,142.61"/>
        <lane id=":17_11_1" index="1" speed="13.90" length="21.55" width="5.38" shape="139.25,147.26 145.43,147.53 150.02,148.05 154.60,148.39 160.75,148.11"/>
    </edge>
    <edge id=":17_13" function="internal">
        <lane id=":17_13_0" index="0" speed="13.90" length="22.96" width="5.38" shape="139.25,147.26 146.03,148.11 150.69,150.63 153.21,154.85 153.61,160.75"/>
    </edge>
    <edge id=":17_14" function="internal">
        <lane id=":17_14_0" index="0" speed="13.90" length="8.00" width="5.38" shape="139.25,147.26 141.30,148.63 141.99,150.00 141.30,151.37 139.25,152.74"/>
    </edge>
    <edge id=":17_15" function="internal">
        <lane id=":17_15_0" index="0" speed="13.90" length="4.86" width="5.38" shape="142.61,160.75 142.49,159.64 141.90,158.85 140.81,158.37 139.25,158.21"/>
    </edge>
    <edge id=":17_16" function="internal">
        <lane id=":17_16_0" index="0" speed="13.90" length="21.55" width="5.38" shape="142.61,160.75 142.90,154.60 142.57,150.02 142.05,145.43 141.79,139.25"/>
        <lane id=":17_16_1" index="1" speed="13.90" length="21.55" width="5.38" shape="148.11,160.75 148.39,154.60 148.05,150.02 147.53,145.43 147.26,139.25"/>
    </edge>
    <edge id=":17_18" function="internal">
        <lane id=":17_18_0" index="0" speed="13.90" length="8.42" width="5.38" shape="148.11,160.75 149.33,155.65 151.07,153.00"/>
    </edge>
    <edge id=":17_19" function="internal">
        <lane id=":17_19_0" index="0" speed="13.90" length="4.22" width="5.38" shape="148.11,160.75 149.49,158.69 150.86,158.00 151.04,158.09"/>
    </edge>
    <edge id=":17_22" function="internal">
        <lane id=":17_22_0" index="0" speed="13.90" length="11.20" width="5.38" shape="151.07,153.00 151.84,151.84 155.65,149.33 160.75,148.11"/>
    </edge>
    <edge id=":17_23" function="internal">
        <lane id=":17_23_0" index="0" speed="13.90" length="3.82" width="5.38" shape="151.04,158.09 152.24,158.69 153.61,160.75"/>
    </edge>
    <edge id=":18_0" function="internal">
        <lane id=":18_0_0" index="0" speed="13.90" length="1.61" width="5.38" shape="110.82,218.12 110.26,218.18 109.88,218.20 109.50,218.21 108.94,218.21"/>
        <lane id=":18_0_1" index="1" speed="13.90" length="1.61" width="5.38" shape="110.28,212.67 109.88,212.71 109.61,212.73 109.34,212.74 108.94,212.74"/>
    </edge>
    <edge id=":18_2" function="internal">
        <lane id=":18_2_0" index="0" speed="13.90" length="4.00" width="5.38" shape="110.28,212.67 108.10,211.51 107.29,210.22"/>
    </edge>
    <edge id=":18_6" function="internal">
        <lane id=":18_6_0" index="0" speed="13.90" length="4.00" width="5.38" shape="107.29,210.22 107.83,208.79 109.74,207.23"/>
    </edge>
    <edge id=":18_3" function="internal">
        <lane id=":18_3_0" index="0" speed="13.90" length="0.53" width="5.38" shape="108.94,201.79 109.02,201.79 109.07,201.79 109.13,201.78 109.21,201.78"/>
        <lane id=":18_3_1" index="1" speed="13.90" length="0.53" width="5.38" shape="108.94,207.26 109.18,207.26 109.34,207.26 109.51,207.25 109.74,207.23"/>
    </edge>
    <edge id=":18_5" function="internal">
        <lane id=":18_5_0" index="0" speed="13.90" length="4.00" width="5.38" shape="108.94,207.26 111.00,208.63 111.68,210.00"/>
    </edge>
    <edge id=":18_7" function="internal">
        <lane id=":18_7_0" index="0" speed="13.90" length="4.00" width="5.38" shape="111.68,210.00 110.99,211.37 108.94,212.74"/>
    </edge>
    <edge id=":19_0" function="internal">
        <lane id=":19_0_0" index="0" speed="13.90" length="1.61" width="5.38" shape="41.04,218.21 40.48,218.21 40.10,218.20 39.72,218.17 39.16,218.12"/>
        <lane id=":19_0_1" index="1" speed="13.90" length="1.61" width="5.38" shape="41.04,212.74 40.64,212.74 40.37,212.73 40.09,212.71 39.70,212.67"/>
    </edge>
    <edge id=":19_2" function="internal">
        <lane id=":19_2_0" index="0" speed="13.90" length="4.00" width="5.38" shape="41.04,212.74 38.98,211.37 38.30,210.00"/>
    </edge>
    <edge id=":19_6" function="internal">
        <lane id=":19_6_0" index="0" speed="13.90" length="4.00" width="5.38" shape="38.30,210.00 38.98,208.63 41.04,207.26"/>
    </edge>
    <edge id=":19_3" function="internal">
        <lane id=":19_3_0" index="0" speed="13.90" length="0.53" width="5.38" shape="40.77,201.77 40.85,201.78 40.90,201.79 40.96,201.79 41.04,201.79"/>
        <lane id=":19_3_1" index="1" speed="13.90" length="0.53" width="5.38" shape="40.24,207.22 40.47,207.25 40.64,207.26 40.80,207.26 41.04,207.26"/>
    </edge>
    <edge id=":19_5" function="internal">
        <lane id=":19_5_0" index="0" speed="13.90" length="4.00" width="5.38" shape="40.24,207.22 42.15,208.79 42.69,210.22"/>
    </edge>
    <edge id=":19_7" function="internal">
        <lane id=":19_7_0" index="0" speed="13.90" length="4.00" width="5.38" shape="42.69,210.22 41.88,211.51 39.70,212.67"/>
    </edge>
    <edge id=":20_0" function="internal">
        <lane id=":20_0_0" index="0" speed="13.90" length="1.61" width="5.38" shape="-8.12,170.83 -8.17,170.28 -8.20,169.90 -8.21,169.52 -8.21,168.96"/>
        <lane id=":20_0_1" index="1" speed="13.90" length="1.61" width="5.38" shape="-2.67,170.30 -2.71,169.90 -2.73,169.63 -2.74,169.36 -2.74,168.96"/>
    </edge>
    <edge id=":20_2" function="internal">
        <lane id=":20_2_0" index="0" speed="13.90" length="4.00" width="5.38" shape="-2.67,170.30 -1.51,168.12 -0.22,167.30"/>
    </edge>
    <edge id=":20_6" function="internal">
        <lane id=":20_6_0" index="0" speed="13.90" length="4.00" width="5.38" shape="-0.22,167.30 1.21,167.85 2.78,169.76"/>
    </edge>
    <edge id=":20_3" function="internal">
        <lane id=":20_3_0" index="0" speed="13.90" length="0.53" width="5.38" shape="8.21,168.96 8.21,169.04 8.21,169.09 8.22,169.15 8.23,169.22"/>
        <lane id=":20_3_1" index="1" speed="13.90" length="0.53" width="5.38" shape="2.74,168.96 2.74,169.20 2.74,169.36 2.75,169.52 2.78,169.76"/>
    </edge>
    <edge id=":20_5" function="internal">
        <lane id=":20_5_0" index="0" speed="13.90" length="4.00" width="5.38" shape="2.74,168.96 1.37,171.01 -0.00,171.70"/>
    </edge>
    <edge id=":20_7" function="internal">
        <lane id=":20_7_0" index="0" speed="13.90" length="4.00" width="5.38" shape="-0.00,171.70 -1.37,171.01 -2.74,168.96"/>
    </edge>
    <edge id=":21_0" function="internal">
        <lane id=":21_0_0" index="0" speed="13.90" length="1.61" width="5.38" shape="-8.21,101.04 -8.21,100.48 -8.20,100.10 -8.17,99.72 -8.12,99.16"/>
        <lane id=":21_0_1" index="1" speed="13.90" length="1.61" width="5.38" shape="-2.74,101.04 -2.74,100.64 -2.73,100.37 -2.71,100.09 -2.67,99.70"/>
    </edge>
    <edge id=":21_2" function="internal">
        <lane id=":21_2_0" index="0" speed="13.90" length="4.00" width="5.38" shape="-2.74,101.04 -1.37,98.98 0.00,98.30"/>
    </edge>
    <edge id=":21_6" function="internal">
        <lane id=":21_6_0" index="0" speed="13.90" length="4.00" width="5.38" shape="0.00,98.30 1.37,98.98 2.74,101.04"/>
    </edge>
    <edge id=":21_3" function="internal">
        <lane id=":21_3_0" index="0" speed="13.90" length="0.53" width="5.38" shape="8.23,100.77 8.22,100.85 8.21,100.90 8.21,100.96 8.21,101.04"/>
        <lane id=":21_3_1" index="1" speed="13.90" length="0.53" width="5.38" shape="2.78,100.24 2.75,100.47 2.74,100.63 2.74,100.80 2.74,101.04"/>
    </edge>
    <edge id=":21_5" function="internal">
        <lane id=":21_5_0" index="0" speed="13.90" length="4.00" width="5.38" shape="2.78,100.24 1.21,102.14 -0.22,102.69"/>
    </edge>
    <edge id=":21_7" function="internal">
        <lane id=":21_7_0" index="0" speed="13.90" length="4.00" width="5.38" shape="-0.22,102.69 -1.51,101.88 -2.67,99.70"/>
    </edge>
    <edge id=":22_0" function="internal">
        <lane id=":22_0_0" index="0" speed="13.90" length="0.52" width="5.38" shape="101.09,8.21 101.02,8.21 100.96,8.21 100.91,8.22 100.83,8.23"/>
        <lane id=":22_0_1" index="1" speed="13.90" length="0.52" width="5.38" shape="101.09,2.74 100.86,2.74 100.70,2.74 100.54,2.75 100.31,2.78"/>
    </edge>
    <edge id=":22_2" function="internal">
        <lane id=":22_2_0" index="0" speed="13.90" length="4.00" width="5.38" shape="101.09,2.74 99.04,1.37 98.35,0.00"/>
    </edge>
    <edge id=":22_6" function="internal">
        <lane id=":22_6_0" index="0" speed="13.90" length="4.00" width="5.38" shape="98.35,0.00 99.04,-1.37 101.09,-2.74"/>
    </edge>
    <edge id=":22_3" function="internal">
        <lane id=":22_3_0" index="0" speed="13.90" length="1.58" width="5.38" shape="99.25,-8.12 99.79,-8.17 100.17,-8.20 100.54,-8.21 101.09,-8.21"/>
        <lane id=":22_3_1" index="1" speed="13.90" length="1.58" width="5.38" shape="99.78,-2.67 100.17,-2.71 100.43,-2.73 100.70,-2.74 101.09,-2.74"/>
    </edge>
    <edge id=":22_5" function="internal">
        <lane id=":22_5_0" index="0" speed="13.90" length="4.00" width="5.38" shape="99.78,-2.67 101.95,-1.51 102.77,-0.21"/>
    </edge>
    <edge id=":22_7" function="internal">
        <lane id=":22_7_0" index="0" speed="13.90" length="4.00" width="5.38" shape="102.77,-0.21 102.22,1.22 100.31,2.78"/>
    </edge>
    <edge id=":23_0" function="internal">
        <lane id=":23_0_0" index="0" speed="13.90" length="0.53" width="5.38" shape="169.23,8.23 169.15,8.22 169.10,8.21 169.04,8.21 168.97,8.21"/>
        <lane id=":23_0_1" index="1" speed="13.90" length="0.53" width="5.38" shape="169.77,2.78 169.53,2.75 169.37,2.74 169.20,2.74 168.97,2.74"/>
    </edge>
    <edge id=":23_2" function="internal">
        <lane id=":23_2_0" index="0" speed="13.90" length="4.00" width="5.38" shape="169.77,2.78 167.86,1.21 167.31,-0.22"/>
    </edge>
    <edge id=":23_6" function="internal">
        <lane id=":23_6_0" index="0" speed="13.90" length="4.00" width="5.38" shape="167.31,-0.22 168.13,-1.51 170.30,-2.67"/>
    </edge>
    <edge id=":23_3" function="internal">
        <lane id=":23_3_0" index="0" speed="13.90" length="1.61" width="5.38" shape="168.97,-8.21 169.52,-8.21 169.90,-8.20 170.29,-8.17 170.84,-8.12"/>
        <lane id=":23_3_1" index="1" speed="13.90" length="1.61" width="5.38" shape="168.97,-2.74 169.36,-2.74 169.64,-2.73 169.91,-2.71 170.30,-2.67"/>
    </edge>
    <edge id=":23_5" function="internal">
        <lane id=":23_5_0" index="0" speed="13.90" length="4.00" width="5.38" shape="168.97,-2.74 171.02,-1.37 171.70,0.00"/>
    </edge>
    <edge id=":23_7" function="internal">
        <lane id=":23_7_0" index="0" speed="13.90" length="4.00" width="5.38" shape="171.70,0.00 171.02,1.37 168.97,2.74"/>
    </edge>
    <edge id=":24_0" function="internal">
        <lane id=":24_0_0" index="0" speed="13.90" length="1.10" width="5.38" shape="201.89,42.13 201.89,41.88 201.88,41.72 201.86,41.55 201.83,41.31"/>
        <lane id=":24_0_1" index="1" speed="13.90" length="1.10" width="5.38" shape="207.37,42.14 207.37,41.73 207.35,41.45 207.32,41.17 207.28,40.77"/>
    </edge>
    <edge id=":24_2" function="internal">
        <lane id=":24_2_0" index="0" speed="13.90" length="4.00" width="5.38" shape="207.37,42.14 208.74,40.09 210.11,39.40"/>
    </edge>
    <edge id=":24_6" function="internal">
        <lane id=":24_6_0" index="0" speed="13.90" length="4.00" width="5.38" shape="210.11,39.40 211.48,40.09 212.84,42.15"/>
    </edge>
    <edge id=":24_3" function="internal">
        <lane id=":24_3_0" index="0" speed="13.90" length="2.19" width="5.38" shape="218.17,39.70 218.25,40.42 218.29,40.92 218.31,41.42 218.32,42.15"/>
        <lane id=":24_3_1" index="1" speed="13.90" length="2.19" width="5.38" shape="212.72,40.23 212.78,40.80 212.82,41.19 212.84,41.58 212.84,42.15"/>
    </edge>
    <edge id=":24_5" function="internal">
        <lane id=":24_5_0" index="0" speed="13.90" length="4.00" width="5.38" shape="212.72,40.23 211.56,42.41 210.27,43.23"/>
    </edge>
    <edge id=":24_7" function="internal">
        <lane id=":24_7_0" index="0" speed="13.90" length="4.00" width="5.38" shape="210.27,43.23 208.84,42.68 207.28,40.77"/>
    </edge>
    <edge id=":25_0" function="internal">
        <lane id=":25_0_0" index="0" speed="13.90" length="1.58" width="5.38" shape="218.21,108.99 218.21,109.53 218.20,109.91 218.17,110.28 218.12,110.83"/>
        <lane id=":25_0_1" index="1" speed="13.90" length="1.58" width="5.38" shape="212.74,108.98 212.74,109.37 212.73,109.64 212.71,109.90 212.67,110.29"/>
    </edge>
    <edge id=":25_2" function="internal">
        <lane id=":25_2_0" index="0" speed="13.90" length="4.00" width="5.38" shape="212.74,108.98 211.37,111.03 210.00,111.71"/>
    </edge>
    <edge id=":25_6" function="internal">
        <lane id=":25_6_0" index="0" speed="13.90" length="4.00" width="5.38" shape="210.00,111.71 208.63,111.02 207.26,108.97"/>
    </edge>
    <edge id=":25_3" function="internal">
        <lane id=":25_3_0" index="0" speed="13.90" length="0.52" width="5.38" shape="201.78,109.22 201.78,109.14 201.79,109.09 201.79,109.04 201.79,108.96"/>
        <lane id=":25_3_1" index="1" speed="13.90" length="0.52" width="5.38" shape="207.22,109.76 207.25,109.52 207.26,109.36 207.26,109.20 207.26,108.97"/>
    </edge>
    <edge id=":25_5" function="internal">
        <lane id=":25_5_0" index="0" speed="13.90" length="4.00" width="5.38" shape="207.22,109.76 208.79,107.85 210.22,107.30"/>
    </edge>
    <edge id=":25_7" function="internal">
        <lane id=":25_7_0" index="0" speed="13.90" length="4.00" width="5.38" shape="210.22,107.30 211.51,108.12 212.67,110.29"/>
    </edge>
    <edge id=":26_0" function="internal">
        <lane id=":26_0_0" index="0" speed="13.90" length="0.53" width="5.38" shape="141.79,101.04 141.79,100.96 141.79,100.91 141.78,100.85 141.78,100.77"/>
        <lane id=":26_0_1" index="1" speed="13.90" length="0.53" width="5.38" shape="147.26,101.04 147.26,100.80 147.26,100.64 147.25,100.47 147.22,100.24"/>
    </edge>
    <edge id=":26_2" function="internal">
        <lane id=":26_2_0" index="0" speed="13.90" length="4.00" width="5.38" shape="147.26,101.04 148.63,98.98 150.00,98.30"/>
    </edge>
    <edge id=":26_6" function="internal">
        <lane id=":26_6_0" index="0" speed="13.90" length="4.00" width="5.38" shape="150.00,98.30 151.37,98.98 152.74,101.04"/>
    </edge>
    <edge id=":26_3" function="internal">
        <lane id=":26_3_0" index="0" speed="13.90" length="1.61" width="5.38" shape="158.12,99.17 158.17,99.72 158.20,100.10 158.21,100.48 158.21,101.04"/>
        <lane id=":26_3_1" index="1" speed="13.90" length="1.61" width="5.38" shape="152.67,99.70 152.71,100.10 152.73,100.37 152.74,100.64 152.74,101.04"/>
    </edge>
    <edge id=":26_5" function="internal">
        <lane id=":26_5_0" index="0" speed="13.90" length="4.00" width="5.38" shape="152.67,99.70 151.51,101.88 150.22,102.69"/>
    </edge>
    <edge id=":26_7" function="internal">
        <lane id=":26_7_0" index="0" speed="13.90" length="4.00" width="5.38" shape="150.22,102.69 148.79,102.15 147.22,100.24"/>
    </edge>
    <edge id=":27_0" function="internal">
        <lane id=":27_0_0" index="0" speed="13.90" length="0.53" width="5.38" shape="109.23,68.23 109.15,68.22 109.10,68.21 109.04,68.21 108.97,68.21"/>
        <lane id=":27_0_1" index="1" speed="13.90" length="0.53" width="5.38" shape="109.77,62.78 109.53,62.75 109.37,62.74 109.20,62.74 108.97,62.74"/>
    </edge>
    <edge id=":27_2" function="internal">
        <lane id=":27_2_0" index="0" speed="13.90" length="4.00" width="5.38" shape="109.77,62.78 107.86,61.21 107.31,59.78"/>
    </edge>
    <edge id=":27_6" function="internal">
        <lane id=":27_6_0" index="0" speed="13.90" length="4.00" width="5.38" shape="107.31,59.78 108.13,58.49 110.30,57.33"/>
    </edge>
    <edge id=":27_3" function="internal">
        <lane id=":27_3_0" index="0" speed="13.90" length="1.61" width="5.38" shape="108.97,51.79 109.52,51.79 109.90,51.80 110.29,51.83 110.84,51.88"/>
        <lane id=":27_3_1" index="1" speed="13.90" length="1.61" width="5.38" shape="108.97,57.26 109.36,57.26 109.64,57.27 109.91,57.29 110.30,57.33"/>
    </edge>
    <edge id=":27_5" function="internal">
        <lane id=":27_5_0" index="0" speed="13.90" length="4.00" width="5.38" shape="108.97,57.26 111.02,58.63 111.70,60.00"/>
    </edge>
    <edge id=":27_7" function="internal">
        <lane id=":27_7_0" index="0" speed="13.90" length="4.00" width="5.38" shape="111.70,60.00 111.02,61.37 108.97,62.74"/>
    </edge>
    <edge id=":28_0" function="internal">
        <lane id=":28_0_0" index="0" speed="13.90" length="1.61" width="5.38" shape="51.88,110.84 51.83,110.28 51.80,109.90 51.79,109.52 51.79,108.96"/>
        <lane id=":28_0_1" index="1" speed="13.90" length="1.61" width="5.38" shape="57.33,110.30 57.29,109.91 57.27,109.63 57.26,109.36 57.26,108.96"/>
    </edge>
    <edge id=":28_2" function="internal">
        <lane id=":28_2_0" index="0" speed="13.90" length="4.00" width="5.38" shape="57.33,110.30 58.49,108.12 59.78,107.31"/>
    </edge>
    <edge id=":28_6" function="internal">
        <lane id=":28_6_0" index="0" speed="13.90" length="4.00" width="5.38" shape="59.78,107.31 61.21,107.86 62.78,109.76"/>
    </edge>
    <edge id=":28_3" function="internal">
        <lane id=":28_3_0" index="0" speed="13.90" length="0.53" width="5.38" shape="68.21,108.96 68.21,109.04 68.21,109.10 68.22,109.15 68.23,109.23"/>
        <lane id=":28_3_1" index="1" speed="13.90" length="0.53" width="5.38" shape="62.74,108.96 62.74,109.20 62.74,109.37 62.75,109.53 62.78,109.76"/>
    </edge>
    <edge id=":28_5" function="internal">
        <lane id=":28_5_0" index="0" speed="13.90" length="4.00" width="5.38" shape="62.74,108.96 61.37,111.02 60.00,111.70"/>
    </edge>
    <edge id=":28_7" function="internal">
        <lane id=":28_7_0" index="0" speed="13.90" length="4.00" width="5.38" shape="60.00,111.70 58.63,111.02 57.26,108.96"/>
    </edge>
    <edge id=":29_0" function="internal">
        <lane id=":29_0_0" index="0" speed="13.90" length="1.61" width="5.38" shape="101.04,158.21 100.48,158.21 100.10,158.20 99.72,158.17 99.16,158.12"/>
        <lane id=":29_0_1" index="1" speed="13.90" length="1.61" width="5.38" shape="101.04,152.74 100.64,152.74 100.37,152.73 100.09,152.71 99.70,152.67"/>
    </edge>
    <edge id=":29_2" function="internal">
        <lane id=":29_2_0" index="0" speed="13.90" length="4.00" width="5.38" shape="101.04,152.74 98.98,151.37 98.30,150.00"/>
    </edge>
    <edge id=":29_6" function="internal">
        <lane id=":29_6_0" index="0" speed="13.90" length="4.00" width="5.38" shape="98.30,150.00 98.98,148.63 101.04,147.26"/>
    </edge>
    <edge id=":29_3" function="internal">
        <lane id=":29_3_0" index="0" speed="13.90" length="0.53" width="5.38" shape="100.77,141.77 100.85,141.78 100.90,141.79 100.96,141.79 101.04,141.79"/>
        <lane id=":29_3_1" index="1" speed="13.90" length="0.53" width="5.38" shape="100.24,147.22 100.47,147.25 100.64,147.26 100.80,147.26 101.04,147.26"/>
    </edge>
    <edge id=":29_5" function="internal">
        <lane id=":29_5_0" index="0" speed="13.90" length="4.00" width="5.38" shape="100.24,147.22 102.14,148.79 102.69,150.22"/>
    </edge>
    <edge id=":29_7" function="internal">
        <lane id=":29_7_0" index="0" speed="13.90" length="4.00" width="5.38" shape="102.69,150.22 101.88,151.51 99.70,152.67"/>
    </edge>

    <edge id="-0" from="17" to="25" priority="-1" shape="169.50,150.00 177.40,149.22 185.00,146.92 192.00,143.17 198.14,138.14 203.18,132.00 206.92,125.00 209.22,117.40 210.00,109.50">
        <lane id="-0_0" index="0" speed="13.90" length="63.69" width="5.38" shape="160.75,142.61 175.79,141.13 181.84,139.29 187.42,136.31 192.30,132.30 196.31,127.42 199.29,121.84 201.13,115.79 201.78,109.22"/>
        <lane id="-0_1" index="1" speed="13.90" length="63.69" width="5.38" shape="160.75,148.11 176.86,146.52 183.95,144.38 190.47,140.89 196.19,136.19 200.89,130.47 204.38,123.95 206.52,116.86 207.22,109.76"/>
    </edge>
    <edge id="-1" from="24" to="25" priority="-1" shape="210.11,40.50 210.00,109.50">
        <lane id="-1_0" index="0" speed="13.90" length="66.83" width="5.38" shape="218.32,42.15 218.21,108.99"/>
        <lane id="-1_1" index="1" speed="13.90" length="66.83" width="5.38" shape="212.84,42.15 212.74,108.98"/>
    </edge>
    <edge id="-10" from="16" to="27" priority="-1" shape="79.50,60.00 109.50,60.00">
        <lane id="-10_0" index="0" speed="13.90" length="38.22" width="5.38" shape="70.75,51.79 108.97,51.79"/>
        <lane id="-10_1" index="1" speed="13.90" length="38.22" width="5.38" shape="70.75,57.26 108.97,57.26"/>
    </edge>
    <edge id="-11" from="16" to="21" priority="-1" shape="40.50,60.00 32.60,60.78 25.00,63.08 18.00,66.83 11.86,71.86 6.83,78.00 3.08,85.00 0.78,92.60 0.00,100.50">
        <lane id="-11_0" index="0" speed="13.90" length="63.68" width="5.38" shape="49.25,67.39 34.21,68.87 28.16,70.71 22.58,73.69 17.70,77.70 13.69,82.58 10.71,88.16 8.87,94.21 8.23,100.77"/>