<?xml version='1.0' encoding='UTF-8'?>
<edges>
  <edge id="1" from="25" to="24" numLanes="2" width="5.375" shape="105.000000,4.500000 105.109640,-64.499913 "/>
  <edge id="-1" to="25" from="24" numLanes="2" width="5.375" shape="105.109640,-64.499913 105.000000,4.500000 "/>
  <edge id="3" from="23" to="22" numLanes="2" width="5.375" shape="64.500000,-105.000000 -4.500000,-105.000000 "/>
  <edge id="-3" to="23" from="22" numLanes="2" width="5.375" shape="-4.500000,-105.000000 64.500000,-105.000000 "/>
  <edge id="5" from="28" to="16" numLanes="2" width="5.375" shape="-45.000000,4.500000 -44.999890,-25.500000 "/>
  <edge id="-5" to="28" from="16" numLanes="2" width="5.375" shape="-44.999890,-25.500000 -45.000000,4.500000 "/>
  <edge id="7" from="17" to="29" numLanes="2" width="5.375" shape="25.500000,45.000000 -4.500000,45.000000 "/>
  <edge id="-7" to="17" from="29" numLanes="2" width="5.375" shape="-4.500000,45.000000 25.500000,45.000000 "/>
  <edge id="8" from="17" to="26" numLanes="2" width="5.375" shape="45.000000,25.500000 45.000110,-4.500000 "/>
  <edge id="-8" to="17" from="26" numLanes="2" width="5.375" shape="45.000110,-4.500000 45.000000,25.500000 "/>
  <edge id="10" from="27" to="16" numLanes="2" width="5.375" shape="4.500000,-45.000000 -25.500000,-45.000000 "/>
  <edge id="-10" to="27" from="16" numLanes="2" width="5.375" shape="-25.500000,-45.000000 4.500000,-45.000000 "/>
  <edge id="12" from="21" to="20" numLanes="2" width="5.375" shape="-105.000000,-4.500000 -105.000437,64.500000 "/>
  <edge id="-12" to="21" from="20" numLanes="2" width="5.375" shape="-105.000437,64.500000 -105.000000,-4.500000 "/>
  <edge id="14" from="19" to="18" numLanes="2" width="5.375" shape="-64.500000,105.000000 4.500000,105.002253 "/>
  <edge id="-14" to="19" from="18" numLanes="2" width="5.375" shape="4.500000,105.002253 -64.500000,105.000000 "/>
  <edge id="0" from="25" to="17" numLanes="2" width="5.375" shape="105.000000,4.499851 104.221829,12.401030 101.917164,19.998576 98.174571,27.000517 93.137877,33.137772 87.000641,38.174488 79.998713,41.917107 72.401176,44.221800 64.500000,45.000000 "/>
  <edge id="-0" to="25" from="17" numLanes="2" width="5.375" shape="64.500000,45.000000 72.401176,44.221800 79.998713,41.917107 87.000641,38.174488 93.137877,33.137772 98.174571,27.000517 101.917164,19.998576 104.221829,12.401030 105.000000,4.499851 "/>
  <edge id="2" from="23" to="24" numLanes="2" width="5.375" shape="64.501322,-105.000000 72.402473,-104.221542 79.999935,-101.916601 87.001740,-98.173754 93.138812,-93.136837 98.175306,-86.999418 101.917670,-79.997354 104.222087,-72.399733 105.000000,-64.498529 "/>
  <edge id="-2" to="23" from="24" numLanes="2" width="5.375" shape="105.000000,-64.498529 104.222087,-72.399733 101.917670,-79.997354 98.175306,-86.999418 93.138812,-93.136837 87.001740,-98.173754 79.999935,-101.916601 72.402473,-104.221542 64.501322,-105.000000 "/>
  <edge id="4" from="16" to="22" numLanes="2" width="5.375" shape="-44.999949,-64.564354 -44.209195,-72.464283 -41.892432,-80.058149 -38.138693,-87.054120 -33.092231,-93.183346 -26.946981,-98.210281 -19.939101,-101.941743 -12.337903,-104.234334 -4.435498,-104.999949 "/>
  <edge id="-4" to="16" from="22" numLanes="2" width="5.375" shape="-4.435498,-104.999949 -12.337903,-104.234334 -19.939101,-101.941743 -26.946981,-98.210281 -33.092231,-93.183346 -38.138693,-87.054120 -41.892432,-80.058149 -44.209195,-72.464283 -44.999949,-64.564354 "/>
  <edge id="6" from="29" to="28" numLanes="2" width="5.375" shape="-4.500000,45.000000 -12.401176,44.221800 -19.998713,41.917107 -27.000641,38.174488 -33.137877,33.137772 -38.174571,27.000517 -41.917164,19.998576 -44.221829,12.401030 -45.000000,4.499851 "/>
  <edge id="-6" to="29" from="28" numLanes="2" width="5.375" shape="-45.000000,4.499851 -44.221829,12.401030 -41.917164,19.998576 -38.174571,27.000517 -33.137877,33.137772 -27.000641,38.174488 -19.998713,41.917107 -12.401176,44.221800 -4.500000,45.000000 "/>
  <edge id="9" from="27" to="26" numLanes="2" width="5.375" shape="4.501322,-45.000000 12.402473,-44.221542 19.999935,-41.916601 27.001740,-38.173754 33.138812,-33.136837 38.175306,-26.999418 41.917670,-19.997354 44.222087,-12.399733 45.000000,-4.498529 "/>
  <edge id="-9" to="27" from="26" numLanes="2" width="5.375" shape="45.000000,-4.498529 44.222087,-12.399733 41.917670,-19.997354 38.175306,-26.999418 33.138812,-33.136837 27.001740,-38.173754 19.999935,-41.916601 12.402473,-44.221542 4.501322,-45.000000 "/>
  <edge id="11" from="21" to="16" numLanes="2" width="5.375" shape="-105.000000,-4.500149 -104.221771,-12.401322 -101.917050,-19.998851 -98.174406,-27.000765 -93.137667,-33.137982 -87.000393,-38.174654 -79.998438,-41.917221 -72.400884,-44.221858 -64.499702,-45.000000 "/>
  <edge id="-11" to="21" from="16" numLanes="2" width="5.375" shape="-64.499702,-45.000000 -72.400884,-44.221858 -79.998438,-41.917221 -87.000393,-38.174654 -93.137667,-33.137982 -98.174406,-27.000765 -101.917050,-19.998851 -104.221771,-12.401322 -105.000000,-4.500149 "/>
  <edge id="13" from="19" to="20" numLanes="2" width="5.375" shape="-64.500000,105.000000 -72.401176,104.221800 -79.998713,101.917107 -87.000641,98.174488 -93.137877,93.137772 -98.174571,87.000517 -101.917164,79.998576 -104.221829,72.401030 -105.000000,64.499851 "/>
  <edge id="-13" to="19" from="20" numLanes="2" width="5.375" shape="-105.000000,64.499851 -104.221829,72.401030 -101.917164,79.998576 -98.174571,87.000517 -93.137877,93.137772 -87.000641,98.174488 -79.998713,101.917107 -72.401176,104.221800 -64.500000,105.000000 "/>
  <edge id="15" from="17" to="18" numLanes="2" width="5.375" shape="45.000000,64.499851 44.221829,72.401030 41.917164,79.998576 38.174571,87.000517 33.137877,93.137772 27.000641,98.174488 19.998713,101.917107 12.401176,104.221800 4.500000,105.000000 "/>
  <edge id="-15" to="17" from="18" numLanes="2" width="5.375" shape="4.500000,105.000000 12.401176,104.221800 19.998713,101.917107 27.000641,98.174488 33.137877,93.137772 38.174571,87.000517 41.917164,79.998576 44.221829,72.401030 45.000000,64.499851 "/>
</edges>
