<?xml version="1.0" encoding="UTF-8"?>

<!-- generated on Fr 05 Nov 2021 16:19:27 by Netedit Version 0.30.0
<?xml version="1.0" encoding="UTF-8"?>

<configuration xmlns:xsi="http://www.w3.org/2001/XMLSchema-instance" xsi:noNamespaceSchemaLocation="http://sumo.dlr.de/xsd/netconvertConfiguration.xsd">


    <processing>
        <no-turnarounds value="true"/>
        <offset.disable-normalization value="true"/>
        <lefthand value="false"/>
        <junctions.corner-detail value="0"/>
        <rectangular-lane-cut value="false"/>
    </processing>

</configuration>
-->

<net version="0.27" xmlns:xsi="http://www.w3.org/2001/XMLSchema-instance" xsi:noNamespaceSchemaLocation="http://sumo.dlr.de/xsd/net_file.xsd">

    <location netOffset="-45.13,679.11" convBoundary="0.00,0.00,369.24,371.11" origBoundary="45.13,-679.11,414.37,-308.00" projParameter="!"/>

    <edge id=":27_0" function="internal">
        <lane id=":27_0_0" index="0" speed="13.90" length="2.96" width="3.50" shape="128.42,175.95 127.68,175.73 127.07,175.86 126.59,176.33 126.23,177.15"/>
    </edge>
    <edge id=":27_1" function="internal">
        <lane id=":27_1_0" index="0" speed="13.90" length="6.99" width="3.50" shape="128.42,175.95 126.55,175.04 125.23,174.49 123.84,174.17 121.79,173.96"/>
    </edge>
    <edge id=":27_2" function="internal">
        <lane id=":27_2_0" index="0" speed="13.90" length="4.12" width="3.50" shape="128.42,175.95 126.25,175.07 124.59,174.80 124.49,174.83"/>
    </edge>
    <edge id=":27_3" function="internal">
        <lane id=":27_3_0" index="0" speed="13.90" length="3.25" width="3.50" shape="128.42,175.95 127.38,174.67 127.22,173.67 127.62,173.24"/>
    </edge>
    <edge id=":27_16" function="internal">
        <lane id=":27_16_0" index="0" speed="13.90" length="2.23" width="3.50" shape="124.49,174.83 123.44,175.14 122.80,176.08"/>
    </edge>
    <edge id=":27_17" function="internal">
        <lane id=":27_17_0" index="0" speed="13.90" length="2.07" width="3.50" shape="127.62,173.24 127.92,172.93 129.50,172.47"/>
    </edge>
    <edge id=":27_4" function="internal">
        <lane id=":27_4_0" index="0" speed="13.90" length="6.16" width="3.50" shape="126.24,177.16 127.08,174.82 127.90,173.26 128.71,172.48 129.50,172.47"/>
    </edge>
    <edge id=":27_5" function="internal">
        <lane id=":27_5_0" index="0" speed="13.90" length="0.10" width="3.50" shape="126.24,177.16 126.23,177.15"/>
    </edge>
    <edge id=":27_6" function="internal">
        <lane id=":27_6_0" index="0" speed="13.90" length="6.37" width="3.50" shape="126.24,177.16 126.28,175.91 125.56,174.97 124.06,174.32 121.79,173.96"/>
    </edge>
    <edge id=":27_7" function="internal">
        <lane id=":27_7_0" index="0" speed="13.90" length="5.26" width="3.50" shape="126.24,177.16 124.98,178.18 123.98,178.34 123.26,177.64 122.80,176.08"/>
    </edge>
    <edge id=":27_8" function="internal">
        <lane id=":27_8_0" index="0" speed="13.90" length="9.31" width="3.50" shape="122.34,166.79 122.80,176.08"/>
    </edge>
    <edge id=":27_9" function="internal">
        <lane id=":27_9_0" index="0" speed="13.90" length="9.45" width="3.50" shape="122.34,166.79 124.80,167.54 126.08,169.01 127.28,170.79 129.50,172.47"/>
    </edge>
    <edge id=":27_10" function="internal">
        <lane id=":27_10_0" index="0" speed="13.90" length="4.95" width="3.50" shape="122.80,170.43 125.01,171.00 126.32,172.31 126.48,173.11"/>
    </edge>
    <edge id=":27_11" function="internal">
        <lane id=":27_11_0" index="0" speed="13.90" length="2.41" width="3.50" shape="122.80,170.43 123.88,171.69 124.01,172.43"/>
    </edge>
    <edge id=":27_18" function="internal">
        <lane id=":27_18_0" index="0" speed="13.90" length="4.11" width="3.50" shape="126.48,173.11 126.72,174.36 126.23,177.15"/>
    </edge>
    <edge id=":27_19" function="internal">
        <lane id=":27_19_0" index="0" speed="13.90" length="2.96" width="3.50" shape="124.01,172.43 124.06,172.70 123.37,173.46 121.79,173.96"/>
    </edge>
    <edge id=":27_12" function="internal">
        <lane id=":27_12_0" index="0" speed="13.90" length="2.80" width="3.50" shape="122.79,176.08 122.95,175.20 122.84,174.55 122.45,174.14 121.79,173.96"/>
    </edge>
    <edge id=":27_13" function="internal">
        <lane id=":27_13_0" index="0" speed="13.90" length="0.10" width="3.50" shape="122.79,176.08 122.80,176.08"/>
    </edge>
    <edge id=":27_14" function="internal">
        <lane id=":27_14_0" index="0" speed="13.90" length="9.03" width="3.50" shape="122.79,176.08 123.88,173.60 125.36,172.18 127.24,171.80 129.50,172.47"/>
    </edge>
    <edge id=":27_15" function="internal">
        <lane id=":27_15_0" index="0" speed="13.90" length="5.26" width="3.50" shape="122.79,176.08 124.05,175.06 125.05,174.90 125.77,175.60 126.23,177.15"/>
    </edge>
    <edge id=":28_0" function="internal">
        <lane id=":28_0_0" index="0" speed="13.90" length="2.78" width="3.50" shape="155.76,99.64 155.01,99.53 154.41,99.70 153.96,100.13 153.67,100.85"/>
    </edge>
    <edge id=":28_1" function="internal">
        <lane id=":28_1_0" index="0" speed="13.90" length="7.04" width="3.50" shape="155.76,99.64 153.72,99.18 152.28,99.03 150.87,98.77 148.96,98.00"/>
    </edge>
    <edge id=":28_2" function="internal">
        <lane id=":28_2_0" index="0" speed="13.90" length="6.57" width="3.50" shape="155.76,99.64 152.62,98.59 150.53,97.63 149.79,97.02"/>
    </edge>
    <edge id=":28_3" function="internal">
        <lane id=":28_3_0" index="0" speed="13.90" length="2.63" width="3.50" shape="155.76,99.64 154.69,98.43 154.49,97.44"/>
    </edge>
    <edge id=":28_16" function="internal">
        <lane id=":28_16_0" index="0" speed="13.90" length="1.17" width="3.50" shape="149.79,97.02 149.48,96.77 149.49,96.00"/>
    </edge>
    <edge id=":28_17" function="internal">
        <lane id=":28_17_0" index="0" speed="13.90" length="2.63" width="3.50" shape="154.49,97.44 155.15,96.69 156.69,96.17"/>
    </edge>
    <edge id=":28_4" function="internal">
        <lane id=":28_4_0" index="0" speed="13.90" length="7.34" width="3.50" shape="150.93,100.11 152.58,98.12 154.08,96.80 155.46,96.15 156.69,96.17"/>
    </edge>
    <edge id=":28_5" function="internal">
        <lane id=":28_5_0" index="0" speed="13.90" length="2.83" width="3.50" shape="150.93,100.11 153.67,100.85"/>
    </edge>
    <edge id=":28_6" function="internal">
        <lane id=":28_6_0" index="0" speed="13.90" length="3.18" width="3.50" shape="150.93,100.11 151.04,99.67 150.75,99.17 150.05,98.61 148.96,98.00"/>
    </edge>
    <edge id=":28_7" function="internal">
        <lane id=":28_7_0" index="0" speed="13.90" length="6.37" width="3.50" shape="150.93,100.11 149.03,99.63 148.15,98.78 148.31,97.57 149.49,96.00"/>
    </edge>
    <edge id=":28_8" function="internal">
        <lane id=":28_8_0" index="0" speed="13.90" length="1.91" width="3.50" shape="149.91,94.45 150.08,94.93 149.79,95.60 149.46,96.08 149.49,96.00"/>
    </edge>
    <edge id=":28_9" function="internal">
        <lane id=":28_9_0" index="0" speed="13.90" length="7.03" width="3.50" shape="149.91,94.45 151.82,95.23 153.22,95.51 154.66,95.69 156.69,96.17"/>
    </edge>
    <edge id=":28_10" function="internal">
        <lane id=":28_10_0" index="0" speed="13.90" length="4.53" width="3.50" shape="149.91,94.45 151.94,95.74 153.24,97.23 153.29,97.37"/>
    </edge>
    <edge id=":28_11" function="internal">
        <lane id=":28_11_0" index="0" speed="13.90" length="2.99" width="3.50" shape="149.91,94.45 151.00,95.69 151.21,96.70 151.00,96.93"/>
    </edge>
    <edge id=":28_18" function="internal">
        <lane id=":28_18_0" index="0" speed="13.90" length="3.57" width="3.50" shape="153.29,97.37 153.82,98.94 153.67,100.85"/>
    </edge>
    <edge id=":28_19" function="internal">
        <lane id=":28_19_0" index="0" speed="13.90" length="2.37" width="3.50" shape="151.00,96.93 150.52,97.47 148.96,98.00"/>
    </edge>
    <edge id=":28_12" function="internal">
        <lane id=":28_12_0" index="0" speed="13.90" length="2.48" width="3.50" shape="150.19,99.92 150.22,99.36 150.03,98.85 149.61,98.40 148.96,98.00"/>
    </edge>
    <edge id=":28_13" function="internal">
        <lane id=":28_13_0" index="0" speed="13.90" length="3.98" width="3.50" shape="150.19,99.92 149.49,96.00"/>
    </edge>
    <edge id=":28_14" function="internal">
        <lane id=":28_14_0" index="0" speed="13.90" length="8.65" width="3.50" shape="150.19,99.92 151.10,97.69 152.49,96.33 154.35,95.82 156.69,96.17"/>
    </edge>
    <edge id=":28_15" function="internal">
        <lane id=":28_15_0" index="0" speed="13.90" length="5.26" width="3.50" shape="150.19,99.92 151.41,98.85 152.39,98.64 153.15,99.31 153.67,100.85"/>
    </edge>
    <edge id=":29_0" function="internal">
        <lane id=":29_0_0" index="0" speed="13.90" length="3.00" width="3.50" shape="192.55,37.80 192.04,38.03 191.84,38.72 191.74,39.61 191.51,40.40"/>
    </edge>
    <edge id=":29_1" function="internal">
        <lane id=":29_1_0" index="0" speed="13.90" length="2.80" width="3.50" shape="192.55,37.80 191.82,40.51"/>
    </edge>
    <edge id=":29_2" function="internal">
        <lane id=":29_2_0" index="0" speed="13.90" length="2.51" width="3.50" shape="192.55,37.80 191.47,36.57 191.29,35.72"/>
    </edge>
    <edge id=":29_9" function="internal">
        <lane id=":29_9_0" index="0" speed="13.90" length="2.79" width="3.50" shape="191.29,35.72 191.26,35.58 191.94,34.82 193.49,34.29"/>
    </edge>
    <edge id=":29_3" function="internal">
        <lane id=":29_3_0" index="0" speed="13.90" length="2.24" width="3.50" shape="192.91,36.46 193.49,34.29"/>
    </edge>
    <edge id=":29_4" function="internal">
        <lane id=":29_4_0" index="0" speed="13.90" length="4.32" width="3.50" shape="192.91,36.46 193.05,37.26 192.66,38.37 192.04,39.52 191.51,40.40"/>
    </edge>
    <edge id=":29_5" function="internal">
        <lane id=":29_5_0" index="0" speed="13.90" length="2.29" width="3.50" shape="192.91,36.46 194.15,37.88 194.23,38.27"/>
    </edge>
    <edge id=":29_10" function="internal">
        <lane id=":29_10_0" index="0" speed="13.90" length="3.83" width="3.50" shape="194.23,38.27 194.39,39.03 193.61,39.90 191.82,40.51"/>
    </edge>
    <edge id=":29_6" function="internal">
        <lane id=":29_6_0" index="0" speed="13.90" length="4.19" width="3.50" shape="188.87,37.76 189.64,37.92 190.79,39.08 191.73,40.26 191.82,40.51"/>
    </edge>
    <edge id=":29_7" function="internal">
        <lane id=":29_7_0" index="0" speed="13.90" length="6.11" width="3.50" shape="188.87,37.76 189.96,36.12 191.09,34.99 192.27,34.38 193.49,34.29"/>
    </edge>
    <edge id=":29_8" function="internal">
        <lane id=":29_8_0" index="0" speed="13.90" length="5.46" width="3.50" shape="188.87,37.76 190.52,37.43 191.51,37.76 191.85,38.75 191.51,40.40"/>
    </edge>
    <edge id=":30_0" function="internal">
        <lane id=":30_0_0" index="0" speed="13.90" length="2.27" width="3.50" shape="263.84,190.71 263.69,190.14 263.35,189.84 262.83,189.66 262.19,189.45"/>
    </edge>
    <edge id=":30_1" function="internal">
        <lane id=":30_1_0" index="0" speed="13.90" length="7.07" width="3.50" shape="263.84,190.71 263.60,188.62 263.32,187.17 263.24,185.74 263.60,183.71"/>
    </edge>
    <edge id=":30_2" function="internal">
        <lane id=":30_2_0" index="0" speed="13.90" length="3.65" width="3.50" shape="263.84,190.71 263.63,188.39 263.36,187.10"/>
    </edge>
    <edge id=":30_3" function="internal">
        <lane id=":30_3_0" index="0" speed="13.90" length="2.47" width="3.50" shape="263.84,190.71 264.74,189.36 265.50,188.98"/>
    </edge>
    <edge id=":30_16" function="internal">
        <lane id=":30_16_0" index="0" speed="13.90" length="2.18" width="3.50" shape="263.36,187.10 263.28,186.73 262.80,185.74 262.19,185.41"/>
    </edge>
    <edge id=":30_17" function="internal">
        <lane id=":30_17_0" index="0" speed="13.90" length="2.79" width="3.50" shape="265.50,188.98 265.65,188.91 266.55,189.36 267.45,190.71"/>
    </edge>
    <edge id=":30_4" function="internal">
        <lane id=":30_4_0" index="0" speed="13.90" length="5.89" width="3.50" shape="262.19,189.01 264.46,189.12 266.09,189.44 267.09,189.97 267.45,190.71"/>
    </edge>
    <edge id=":30_5" function="internal">
        <lane id=":30_5_0" index="0" speed="13.90" length="0.44" width="3.50" shape="262.19,189.01 262.19,189.45"/>
    </edge>
    <edge id=":30_6" function="internal">
        <lane id=":30_6_0" index="0" speed="13.90" length="5.63" width="3.50" shape="262.19,189.01 261.95,188.32 262.43,186.72 263.13,184.95 263.60,183.71"/>
    </edge>
    <edge id=":30_7" function="internal">
        <lane id=":30_7_0" index="0" speed="13.90" length="5.26" width="3.50" shape="262.19,189.01 260.84,188.11 260.39,187.21 260.84,186.31 262.19,185.41"/>
    </edge>
    <edge id=":30_8" function="internal">
        <lane id=":30_8_0" index="0" speed="13.90" length="5.70" width="3.50" shape="267.32,183.71 266.83,184.45 265.82,184.98 264.27,185.30 262.19,185.41"/>
    </edge>
    <edge id=":30_9" function="internal">
        <lane id=":30_9_0" index="0" speed="13.90" length="7.07" width="3.50" shape="267.32,183.71 266.94,185.74 266.99,187.17 267.23,188.62 267.45,190.71"/>
    </edge>
    <edge id=":30_10" function="internal">
        <lane id=":30_10_0" index="0" speed="13.90" length="5.06" width="3.50" shape="267.32,183.71 266.32,186.70 265.33,188.34"/>
    </edge>
    <edge id=":30_11" function="internal">
        <lane id=":30_11_0" index="0" speed="13.90" length="3.13" width="3.50" shape="267.32,183.71 266.39,185.10 265.46,185.57 265.08,185.38"/>
    </edge>
    <edge id=":30_18" function="internal">
        <lane id=":30_18_0" index="0" speed="13.90" length="3.60" width="3.50" shape="265.33,188.34 265.14,188.65 263.76,189.57 262.19,189.45"/>
    </edge>
    <edge id=":30_19" function="internal">
        <lane id=":30_19_0" index="0" speed="13.90" length="2.30" width="3.50" shape="265.08,185.38 264.53,185.10 263.60,183.71"/>
    </edge>
    <edge id=":30_12" function="internal">
        <lane id=":30_12_0" index="0" speed="13.90" length="2.67" width="3.50" shape="262.19,185.59 262.77,185.59 263.15,185.15 263.41,184.46 263.60,183.71"/>
    </edge>
    <edge id=":30_13" function="internal">
        <lane id=":30_13_0" index="0" speed="13.90" length="0.18" width="3.50" shape="262.19,185.59 262.19,185.41"/>
    </edge>
    <edge id=":30_14" function="internal">
        <lane id=":30_14_0" index="0" speed="13.90" length="7.74" width="3.50" shape="262.19,185.59 264.43,186.64 266.05,187.85 267.05,189.20 267.45,190.71"/>
    </edge>
    <edge id=":30_15" function="internal">
        <lane id=":30_15_0" index="0" speed="13.90" length="5.63" width="3.50" shape="262.19,185.59 263.64,186.56 264.12,187.52 263.64,188.48 262.19,189.45"/>
    </edge>
    <edge id=":32_0" function="internal">
        <lane id=":32_0_0" index="0" speed="13.90" length="2.17" width="3.50" shape="315.32,109.64 315.44,110.27 315.47,110.71 315.43,111.15 315.31,111.78"/>
    </edge>
    <edge id=":32_1" function="internal">
        <lane id=":32_1_0" index="0" speed="13.90" length="2.63" width="3.50" shape="315.32,109.64 314.70,111.14 313.91,111.76"/>
    </edge>
    <edge id=":32_4" function="internal">
        <lane id=":32_4_0" index="0" speed="13.90" length="2.63" width="3.50" shape="313.91,111.76 312.94,111.50 311.79,110.35"/>
    </edge>
    <edge id=":32_2" function="internal">
        <lane id=":32_2_0" index="0" speed="13.90" length="0.71" width="3.50" shape="311.79,111.05 311.83,110.85 311.84,110.70 311.83,110.56 311.79,110.35"/>
    </edge>
    <edge id=":32_3" function="internal">
        <lane id=":32_3_0" index="0" speed="13.90" length="2.63" width="3.50" shape="311.79,111.05 312.94,109.91 313.91,109.65"/>
    </edge>
    <edge id=":32_5" function="internal">
        <lane id=":32_5_0" index="0" speed="13.90" length="2.63" width="3.50" shape="313.91,109.65 314.70,110.28 315.31,111.78"/>
    </edge>
    <edge id=":33_0" function="internal">
        <lane id=":33_0_0" index="0" speed="13.90" length="0.22" width="3.50" shape="302.21,63.03 302.20,62.97 302.19,62.93 302.17,62.88 302.15,62.82"/>
    </edge>
    <edge id=":33_1" function="internal">
        <lane id=":33_1_0" index="0" speed="13.90" length="2.63" width="3.50" shape="302.21,63.03 302.82,61.53 303.62,60.91"/>
    </edge>
    <edge id=":33_4" function="internal">
        <lane id=":33_4_0" index="0" speed="13.90" length="2.63" width="3.50" shape="303.62,60.91 304.59,61.18 305.74,62.32"/>
    </edge>
    <edge id=":33_2" function="internal">
        <lane id=":33_2_0" index="0" speed="13.90" length="0.67" width="3.50" shape="305.57,61.68 305.63,61.86 305.67,61.99 305.70,62.13 305.74,62.32"/>
    </edge>
    <edge id=":33_3" function="internal">
        <lane id=":33_3_0" index="0" speed="13.90" length="2.63" width="3.50" shape="305.57,61.68 305.14,63.24 304.43,63.96"/>
    </edge>
    <edge id=":33_5" function="internal">
        <lane id=":33_5_0" index="0" speed="13.90" length="2.63" width="3.50" shape="304.43,63.96 303.44,63.82 302.15,62.82"/>
    </edge>
    <edge id=":34_0" function="internal">
        <lane id=":34_0_0" index="0" speed="13.90" length="0.10" width="3.50" shape="238.44,113.87 238.44,113.88"/>
    </edge>
    <edge id=":34_1" function="internal">
        <lane id=":34_1_0" index="0" speed="13.90" length="2.63" width="3.50" shape="238.44,113.87 236.82,113.74 235.99,113.18"/>
    </edge>
    <edge id=":34_4" function="internal">
        <lane id=":34_4_0" index="0" speed="13.90" length="2.63" width="3.50" shape="235.99,113.18 235.94,112.17 236.68,110.73"/>
    </edge>
    <edge id=":34_2" function="internal">
        <lane id=":34_2_0" index="0" speed="13.90" length="0.10" width="3.50" shape="236.69,110.74 236.68,110.73"/>
    </edge>
    <edge id=":34_3" function="internal">
        <lane id=":34_3_0" index="0" speed="13.90" length="2.63" width="3.50" shape="236.69,110.74 238.30,110.87 239.13,111.43"/>
    </edge>
    <edge id=":34_5" function="internal">
        <lane id=":34_5_0" index="0" speed="13.90" length="2.63" width="3.50" shape="239.13,111.43 239.18,112.44 238.44,113.88"/>
    </edge>
    <edge id=":35_0" function="internal">
        <lane id=":35_0_0" index="0" speed="13.90" length="0.61" width="3.50" shape="203.64,133.27 203.48,133.36 203.38,133.41 203.26,133.47 203.10,133.54"/>
    </edge>
    <edge id=":35_1" function="internal">
        <lane id=":35_1_0" index="0" speed="13.90" length="2.63" width="3.50" shape="203.64,133.27 202.02,133.14 201.19,132.58"/>
    </edge>
    <edge id=":35_4" function="internal">
        <lane id=":35_4_0" index="0" speed="13.90" length="2.63" width="3.50" shape="201.19,132.58 201.15,131.57 201.89,130.13"/>
    </edge>
    <edge id=":35_2" function="internal">
        <lane id=":35_2_0" index="0" speed="13.90" length="0.20" width="3.50" shape="201.71,130.21 201.77,130.19 201.80,130.17 201.84,130.15 201.89,130.13"/>
    </edge>
    <edge id=":35_3" function="internal">
        <lane id=":35_3_0" index="0" speed="13.90" length="2.63" width="3.50" shape="201.71,130.21 203.30,130.52 204.07,131.18"/>
    </edge>
    <edge id=":35_5" function="internal">
        <lane id=":35_5_0" index="0" speed="13.90" length="2.63" width="3.50" shape="204.07,131.18 204.00,132.18 203.10,133.54"/>
    </edge>
    <edge id=":36_0" function="internal">
        <lane id=":36_0_0" index="0" speed="13.90" length="5.21" width="3.50" shape="146.19,137.62 144.81,137.29 143.65,137.47 142.69,138.17 141.94,139.38"/>
    </edge>
    <edge id=":36_1" function="internal">
        <lane id=":36_1_0" index="0" speed="13.90" length="10.93" width="3.50" shape="146.19,137.62 143.68,136.16 142.20,134.19 141.73,131.72 142.28,128.73"/>
    </edge>
    <edge id=":36_2" function="internal">
        <lane id=":36_2_0" index="0" speed="13.90" length="5.26" width="3.50" shape="146.19,137.62 145.27,136.29 145.19,135.28 145.94,134.61 147.53,134.28"/>
    </edge>
    <edge id=":36_3" function="internal">
        <lane id=":36_3_0" index="0" speed="13.90" length="5.22" width="3.50" shape="145.64,130.04 145.38,131.46 145.60,132.64 146.32,133.58 147.53,134.28"/>
    </edge>
    <edge id=":36_4" function="internal">
        <lane id=":36_4_0" index="0" speed="13.90" length="10.05" width="3.50" shape="145.64,130.04 144.68,132.86 143.95,134.77 143.14,136.66 141.94,139.38"/>
    </edge>
    <edge id=":36_5" function="internal">
        <lane id=":36_5_0" index="0" speed="13.90" length="2.63" width="3.50" shape="145.64,130.04 144.31,130.97 143.30,131.06"/>
    </edge>
    <edge id=":36_9" function="internal">
        <lane id=":36_9_0" index="0" speed="13.90" length="2.63" width="3.50" shape="143.30,131.06 142.63,130.31 142.28,128.73"/>
    </edge>
    <edge id=":36_6" function="internal">
        <lane id=":36_6_0" index="0" speed="13.90" length="9.94" width="3.50" shape="138.63,137.97 139.82,135.27 140.62,133.41 141.34,131.52 142.28,128.73"/>
    </edge>
    <edge id=":36_7" function="internal">
        <lane id=":36_7_0" index="0" speed="13.90" length="5.68" width="3.50" shape="138.63,137.97 140.19,135.43 142.20,133.96 142.40,133.93"/>
    </edge>
    <edge id=":36_8" function="internal">
        <lane id=":36_8_0" index="0" speed="13.90" length="2.63" width="3.50" shape="138.63,137.97 139.99,137.08 140.99,137.02"/>
    </edge>
    <edge id=":36_10" function="internal">
        <lane id=":36_10_0" index="0" speed="13.90" length="5.24" width="3.50" shape="142.40,133.93 144.64,133.58 147.53,134.28"/>
    </edge>
    <edge id=":36_11" function="internal">
        <lane id=":36_11_0" index="0" speed="13.90" length="2.63" width="3.50" shape="140.99,137.02 141.65,137.79 141.94,139.38"/>
    </edge>
    <edge id=":37_0" function="internal">
        <lane id=":37_0_0" index="0" speed="13.90" length="10.59" width="3.50" shape="222.18,185.91 219.64,187.63 217.86,188.98 216.29,190.56 214.39,192.95"/>
    </edge>
    <edge id=":37_1" function="internal">
        <lane id=":37_1_0" index="0" speed="13.90" length="5.45" width="3.50" shape="222.18,185.91 219.73,187.08 217.21,187.32 217.01,187.27"/>
    </edge>
    <edge id=":37_2" function="internal">
        <lane id=":37_2_0" index="0" speed="13.90" length="2.86" width="3.50" shape="222.18,185.91 220.56,186.06 219.64,185.64 219.59,185.42"/>
    </edge>
    <edge id=":37_9" function="internal">
        <lane id=":37_9_0" index="0" speed="13.90" length="5.55" width="3.50" shape="217.01,187.27 214.64,186.63 212.01,184.99"/>
    </edge>
    <edge id=":37_10" function="internal">
        <lane id=":37_10_0" index="0" speed="13.90" length="2.41" width="3.50" shape="219.59,185.42 219.42,184.66 219.90,183.10"/>
    </edge>
    <edge id=":37_3" function="internal">
        <lane id=":37_3_0" index="0" speed="13.90" length="6.11" width="3.50" shape="214.28,182.20 215.84,183.21 217.29,183.69 218.65,183.66 219.90,183.10"/>
    </edge>
    <edge id=":37_4" function="internal">
        <lane id=":37_4_0" index="0" speed="13.90" length="12.14" width="3.50" shape="214.28,182.20 216.21,184.39 216.87,186.91 216.26,189.77 214.39,192.95"/>
    </edge>
    <edge id=":37_5" function="internal">
        <lane id=":37_5_0" index="0" speed="13.90" length="5.26" width="3.50" shape="214.28,182.20 214.76,183.75 214.54,184.73 213.63,185.15 212.01,184.99"/>
    </edge>
    <edge id=":37_6" function="internal">
        <lane id=":37_6_0" index="0" speed="13.90" length="5.61" width="3.50" shape="212.18,189.91 213.05,188.50 213.31,187.21 212.96,186.04 212.01,184.99"/>
    </edge>
    <edge id=":37_7" function="internal">
        <lane id=":37_7_0" index="0" speed="13.90" length="10.37" width="3.50" shape="212.18,189.91 214.12,187.59 215.66,186.09 217.39,184.80 219.90,183.10"/>
    </edge>
    <edge id=":37_8" function="internal">
        <lane id=":37_8_0" index="0" speed="13.90" length="2.29" width="3.50" shape="212.18,189.91 213.87,189.85 214.40,190.12"/>
    </edge>
    <edge id=":37_11" function="internal">
        <lane id=":37_11_0" index="0" speed="13.90" length="3.19" width="3.50" shape="214.40,190.12 214.80,190.33 214.97,191.37 214.39,192.95"/>
    </edge>
    <edge id=":38_0" function="internal">
        <lane id=":38_0_0" index="0" speed="13.90" length="0.31" width="3.50" shape="45.86,172.25 45.79,172.55"/>
    </edge>
    <edge id=":38_1" function="internal">
        <lane id=":38_1_0" index="0" speed="13.90" length="2.63" width="3.50" shape="45.86,172.25 44.71,173.39 43.74,173.65"/>
    </edge>
    <edge id=":38_4" function="internal">
        <lane id=":38_4_0" index="0" speed="13.90" length="2.63" width="3.50" shape="43.74,173.65 42.95,173.03 42.34,171.53"/>
    </edge>
    <edge id=":38_2" function="internal">
        <lane id=":38_2_0" index="0" speed="13.90" length="0.30" width="3.50" shape="42.27,171.81 42.34,171.53"/>
    </edge>
    <edge id=":38_3" function="internal">
        <lane id=":38_3_0" index="0" speed="13.90" length="2.63" width="3.50" shape="42.27,171.81 43.42,170.68 44.40,170.42"/>
    </edge>
    <edge id=":38_5" function="internal">
        <lane id=":38_5_0" index="0" speed="13.90" length="2.63" width="3.50" shape="44.40,170.42 45.18,171.04 45.79,172.55"/>
    </edge>
    <edge id=":39_0" function="internal">
        <lane id=":39_0_0" index="0" speed="13.90" length="0.21" width="3.50" shape="318.66,227.31 318.58,227.12"/>
    </edge>
    <edge id=":39_1" function="internal">
        <lane id=":39_1_0" index="0" speed="13.90" length="2.63" width="3.50" shape="318.66,227.31 318.91,225.71 319.54,224.92"/>
    </edge>
    <edge id=":39_4" function="internal">
        <lane id=":39_4_0" index="0" speed="13.90" length="2.63" width="3.50" shape="319.54,224.92 320.55,224.96 321.93,225.81"/>
    </edge>
    <edge id=":39_2" function="internal">
        <lane id=":39_2_0" index="0" speed="13.90" length="0.31" width="3.50" shape="321.81,225.52 321.93,225.81"/>
    </edge>
    <edge id=":39_3" function="internal">
        <lane id=":39_3_0" index="0" speed="13.90" length="2.63" width="3.50" shape="321.81,225.52 321.60,227.13 320.99,227.94"/>
    </edge>
    <edge id=":39_5" function="internal">
        <lane id=":39_5_0" index="0" speed="13.90" length="2.63" width="3.50" shape="320.99,227.94 319.98,227.93 318.58,227.12"/>
    </edge>
    <edge id=":40_0" function="internal">
        <lane id=":40_0_0" index="0" speed="13.90" length="0.16" width="3.50" shape="312.23,215.03 312.21,214.99 312.19,214.96 312.18,214.93 312.15,214.89"/>
    </edge>
    <edge id=":40_1" function="internal">
        <lane id=":40_1_0" index="0" speed="13.90" length="2.63" width="3.50" shape="312.23,215.03 312.35,213.41 312.91,212.57"/>
    </edge>
    <edge id=":40_4" function="internal">
        <lane id=":40_4_0" index="0" speed="13.90" length="2.63" width="3.50" shape="312.91,212.57 313.92,212.52 315.36,213.25"/>
    </edge>
    <edge id=":40_2" function="internal">
        <lane id=":40_2_0" index="0" speed="13.90" length="0.48" width="3.50" shape="315.11,212.84 315.19,212.96 315.24,213.04 315.29,213.13 315.36,213.25"/>
    </edge>
    <edge id=":40_3" function="internal">
        <lane id=":40_3_0" index="0" speed="13.90" length="2.63" width="3.50" shape="315.11,212.84 315.14,214.46 314.65,215.35"/>
    </edge>
    <edge id=":40_5" function="internal">
        <lane id=":40_5_0" index="0" speed="13.90" length="2.63" width="3.50" shape="314.65,215.35 313.66,215.49 312.15,214.89"/>
    </edge>
    <edge id=":Custom13_0" function="internal">
        <lane id=":Custom13_0_0" index="0" speed="13.90" length="5.26" width="3.50" shape="368.39,248.85 370.00,249.01 370.83,249.59 370.86,250.59 370.09,252.03"/>
    </edge>
    <edge id=":Custom14_0" function="internal">
        <lane id=":Custom14_0_0" index="0" speed="13.90" length="5.26" width="3.50" shape="123.48,210.62 122.66,212.02 121.78,212.52 120.86,212.12 119.88,210.82"/>
    </edge>
    <edge id=":Custom15_0" function="internal">
        <lane id=":Custom15_0_0" index="0" speed="13.90" length="5.26" width="3.50" shape="59.84,58.63 60.41,60.15 60.25,61.14 59.36,61.61 57.74,61.55"/>
    </edge>
    <edge id=":Custom16_0" function="internal">
        <lane id=":Custom16_0_0" index="0" speed="13.90" length="5.26" width="3.50" shape="1.11,88.34 -0.51,88.46 -1.42,88.03 -1.62,87.04 -1.11,85.50"/>
    </edge>
    <edge id=":Custom17_0" function="internal">
        <lane id=":Custom17_0_0" index="0" speed="13.90" length="5.26" width="3.50" shape="74.96,66.01 75.78,67.42 75.79,68.42 74.99,69.03 73.38,69.25"/>
    </edge>
    <edge id=":Custom18_0" function="internal">
        <lane id=":Custom18_0_0" index="0" speed="13.90" length="5.26" width="3.50" shape="57.99,61.71 57.17,60.30 57.16,59.30 57.96,58.69 59.57,58.47"/>
    </edge>
    <edge id=":Custom21_0" function="internal">
        <lane id=":Custom21_0_0" index="0" speed="13.90" length="5.26" width="3.50" shape="73.37,69.24 72.56,67.83 72.56,66.83 73.37,66.22 74.97,66.02"/>
    </edge>
    <edge id=":Custom22_0" function="internal">
        <lane id=":Custom22_0_0" index="0" speed="13.90" length="5.26" width="3.50" shape="74.17,162.38 73.11,161.16 72.92,160.17 73.59,159.42 75.13,158.92"/>
    </edge>
    <edge id=":Custom23_0" function="internal">
        <lane id=":Custom23_0_0" index="0" speed="13.90" length="5.26" width="3.50" shape="225.45,74.03 227.07,73.94 227.98,74.38 228.16,75.37 227.63,76.91"/>
    </edge>