<?xml version='1.0' encoding='UTF-8'?>
<nodes>
  <node id="32" x="358.82866" y="-568.38282"/>
  <node id="33" x="349.05981" y="-616.65644"/>
  <node id="34" x="282.69042" y="-566.80623"/>
  <node id="35" x="247.7555" y="-547.331"/>
  <node id="36" x="188.89" y="-544.26"/>
  <node id="37" x="262.45" y="-491.77"/>
  <node id="38" x="89.195" y="-507.075"/>
  <node id="39" x="365.37502" y="-452.67301"/>
  <node id="40" x="358.84946" y="-465.11139"/>
  <node id="27" x="170.71" y="-505.83" shape="175.093098,-508.129663 173.009663,-501.446902 166.326902,-503.530337 168.410337,-510.213098 175.093098,-508.129663"/>
  <node id="28" x="197.976" y="-582.106" shape="202.262616,-584.580859 200.450859,-577.819384 193.689384,-579.631141 195.501141,-586.392616 202.262616,-584.580859"/>
  <node id="29" x="235.867" y="-642.345" shape="238.724734,-645.202742 236.913011,-638.441259 231.963256,-643.390999 238.724734,-645.202742"/>
  <node id="30" x="310.82" y="-491.9" shape="314.319994,-488.399994 307.319994,-488.400006 307.320006,-495.400006 314.320006,-495.399994 314.319994,-488.399994"/>
  <node id="Custom13" x="414.368" y="-428.672"/>
  <node id="Custom14" x="166.81" y="-468.39"/>
  <node id="Custom15" x="103.92" y="-619.02"/>
  <node id="Custom16" x="45.129999999999995" y="-592.1899999999999"/>
  <node id="Custom17" x="119.3" y="-611.48"/>
  <node id="Custom18" x="103.91" y="-619.02"/>
  <node id="Custom19" x="344.4454142595093" y="-615.7486400504824"/>
  <node id="Custom20" x="354.21791141500904" y="-567.4749961094483"/>
  <node id="Custom21" x="119.30000000000001" y="-611.4799999999999"/>
  <node id="Custom22" x="120.24778204910007" y="-520.1512312363542"/>
  <node id="Custom23" x="271.67" y="-603.64"/>
  <node id="Custom24" x="239.57" y="-342.99"/>
  <node id="Custom25" x="227.1" y="-321.39"/>
  <node id="Custom26" x="252.04000000000002" y="-321.4"/>
  <node id="Custom27" x="249.564" y="-542.941"/>
  <node id="Custom28" x="284.5048359073575" y="-562.412465946228"/>
  <node id="Custom29" x="295.7918134652591" y="-574.1107997298354"/>
  <node id="Custom30" x="246.3607197440292" y="-340.37329857714093"/>
  <node id="Custom31" x="242.8155645835434" y="-334.2217235846629"/>
</nodes>
