<?xml version="1.0" encoding="UTF-8"?>

<!-- generated on 17.07.2017 17:30:12 by Netedit Version 0.30.0
<?xml version="1.0" encoding="UTF-8"?>

<configuration xmlns:xsi="http://www.w3.org/2001/XMLSchema-instance" xsi:noNamespaceSchemaLocation="http://sumo.dlr.de/xsd/netconvertConfiguration.xsd">

    <input>
        <sumo-net-file value="C:\msys64\home\David\develop\webots-develop\projects\automobile\worlds\village_realistic_net\sumo.net.xml"/>
    </input>

    <output>
        <output-file value="C:\msys64\home\David\develop\webots-develop\projects\automobile\worlds\village_realistic_net\sumo.net.xml"/>
    </output>

    <processing>
        <no-turnarounds value="true"/>
        <offset.disable-normalization value="true"/>
        <lefthand value="false"/>
        <junctions.corner-detail value="0"/>
        <rectangular-lane-cut value="false"/>
    </processing>

    <visualisation>
        <registry-viewport value="true"/>
    </visualisation>

</configuration>
-->

<net version="0.27" xmlns:xsi="http://www.w3.org/2001/XMLSchema-instance" xsi:noNamespaceSchemaLocation="http://sumo.dlr.de/xsd/net_file.xsd">

    <location netOffset="679.11,414.37" convBoundary="0.00,0.00,371.11,327.98" origBoundary="-679.11,-414.37,-308.00,-45.13" projParameter="!"/>

    <edge id=":27_0" function="internal">
        <lane id=":27_0_0" index="0" speed="13.90" length="4.46" width="1.75" shape="176.34,245.61 174.94,245.36 173.92,245.54 173.26,246.17 172.98,247.23"/>
    </edge>
    <edge id=":27_1" function="internal">
        <lane id=":27_1_0" index="0" speed="13.90" length="0.10" width="1.75" shape="176.34,245.61 176.34,245.60"/>
    </edge>
    <edge id=":27_2" function="internal">
        <lane id=":27_2_0" index="0" speed="13.90" length="4.83" width="1.75" shape="176.34,245.61 174.27,244.70 173.07,243.46 172.91,242.64"/>
    </edge>
    <edge id=":27_12" function="internal">
        <lane id=":27_12_0" index="0" speed="13.90" length="2.73" width="1.75" shape="172.91,242.64 172.76,241.89 173.32,240.00"/>
    </edge>
    <edge id=":27_3" function="internal">
        <lane id=":27_3_0" index="0" speed="13.90" length="4.44" width="1.75" shape="175.10,240.56 174.78,241.67 174.97,242.58 175.67,243.31 176.89,243.85"/>
    </edge>
    <edge id=":27_4" function="internal">
        <lane id=":27_4_0" index="0" speed="13.90" length="7.08" width="1.75" shape="175.10,240.56 174.16,242.44 173.57,243.77 173.21,245.16 172.98,247.23"/>
    </edge>
    <edge id=":27_5" function="internal">
        <lane id=":27_5_0" index="0" speed="13.90" length="6.10" width="1.75" shape="175.10,240.56 174.44,242.39 174.43,243.84 175.06,244.91 176.34,245.60"/>
    </edge>
    <edge id=":27_6" function="internal">
        <lane id=":27_6_0" index="0" speed="13.90" length="5.99" width="1.75" shape="176.89,243.84 174.90,243.05 173.64,242.14 173.11,241.13 173.32,240.00"/>
    </edge>
    <edge id=":27_7" function="internal">
        <lane id=":27_7_0" index="0" speed="13.90" length="0.10" width="1.75" shape="176.89,243.84 176.89,243.85"/>
    </edge>
    <edge id=":27_8" function="internal">
        <lane id=":27_8_0" index="0" speed="13.90" length="3.53" width="1.75" shape="176.89,243.84 175.31,243.63 174.13,244.13 173.77,244.68"/>
    </edge>
    <edge id=":27_13" function="internal">
        <lane id=":27_13_0" index="0" speed="13.90" length="2.71" width="1.75" shape="173.77,244.68 173.35,245.33 172.98,247.23"/>
    </edge>
    <edge id=":27_9" function="internal">
        <lane id=":27_9_0" index="0" speed="13.90" length="6.09" width="1.75" shape="171.17,246.67 171.57,245.62 172.56,245.09 174.15,245.09 176.34,245.60"/>
    </edge>
    <edge id=":27_10" function="internal">
        <lane id=":27_10_0" index="0" speed="13.90" length="7.08" width="1.75" shape="171.17,246.67 171.40,244.59 171.77,243.20 172.37,241.88 173.32,240.00"/>
    </edge>
    <edge id=":27_11" function="internal">
        <lane id=":27_11_0" index="0" speed="13.90" length="7.65" width="1.75" shape="171.17,246.67 171.65,244.83 172.77,243.75 174.51,243.42 176.89,243.85"/>
    </edge>
    <edge id=":28_0" function="internal">
        <lane id=":28_0_0" index="0" speed="13.90" length="2.83" width="1.75" shape="100.14,218.21 98.31,220.37"/>
    </edge>
    <edge id=":28_1" function="internal">
        <lane id=":28_1_0" index="0" speed="13.90" length="0.16" width="1.75" shape="100.14,218.21 99.99,218.15"/>
    </edge>
    <edge id=":28_6" function="internal">
        <lane id=":28_6_0" index="0" speed="13.90" length="7.07" width="1.75" shape="99.99,218.15 98.29,217.46 97.15,216.31 96.73,214.74 97.01,212.77"/>
    </edge>
    <edge id=":28_2" function="internal">
        <lane id=":28_2_0" index="0" speed="13.90" length="4.21" width="1.75" shape="98.80,213.25 98.63,214.40 98.88,215.31 99.54,215.99 100.62,216.42"/>
    </edge>
    <edge id=":28_3" function="internal">
        <lane id=":28_3_0" index="0" speed="13.90" length="7.36" width="1.75" shape="98.80,213.25 98.09,216.00 97.77,218.10 97.85,219.56 98.31,220.37"/>
    </edge>
    <edge id=":28_4" function="internal">
        <lane id=":28_4_0" index="0" speed="13.90" length="7.54" width="1.75" shape="99.87,219.22 98.23,217.73 97.20,216.17 96.80,214.51 97.01,212.77"/>
    </edge>
    <edge id=":28_5" function="internal">
        <lane id=":28_5_0" index="0" speed="13.90" length="2.89" width="1.75" shape="99.87,219.22 100.62,216.42"/>
    </edge>
    <edge id=":29_0" function="internal">
        <lane id=":29_0_0" index="0" speed="13.90" length="2.83" width="1.75" shape="38.51,179.79 37.95,179.61 37.35,179.69 36.70,180.01 36.00,180.59"/>
    </edge>
    <edge id=":29_1" function="internal">
        <lane id=":29_1_0" index="0" speed="13.90" length="4.37" width="1.75" shape="38.51,179.79 36.92,179.00 35.75,178.65 35.01,178.75 34.69,179.29"/>
    </edge>
    <edge id=":29_2" function="internal">
        <lane id=":29_2_0" index="0" speed="13.90" length="4.86" width="1.75" shape="36.34,180.93 36.72,179.18 37.29,178.10 38.05,177.69 39.00,177.94"/>
    </edge>
    <edge id=":29_3" function="internal">
        <lane id=":29_3_0" index="0" speed="13.90" length="0.48" width="1.75" shape="36.34,180.93 36.00,180.59"/>
    </edge>
    <edge id=":29_4" function="internal">
        <lane id=":29_4_0" index="0" speed="13.90" length="0.10" width="1.75" shape="34.69,179.28 34.69,179.29"/>
    </edge>
    <edge id=":29_5" function="internal">
        <lane id=":29_5_0" index="0" speed="13.90" length="2.01" width="1.75" shape="34.69,179.28 35.88,178.31 36.30,178.10"/>
    </edge>
    <edge id=":29_6" function="internal">
        <lane id=":29_6_0" index="0" speed="13.90" length="2.84" width="1.75" shape="36.30,178.10 36.99,177.76 38.03,177.63 39.00,177.94"/>
    </edge>
    <edge id=":30_0" function="internal">
        <lane id=":30_0_0" index="0" speed="13.90" length="3.51" width="1.75" shape="190.71,104.52 190.10,104.71 189.53,105.19 189.00,105.97 188.51,107.05"/>
    </edge>
    <edge id=":30_1" function="internal">
        <lane id=":30_1_0" index="0" speed="13.90" length="7.07" width="1.75" shape="190.71,104.52 188.62,104.76 187.17,105.02 185.75,105.08 183.71,104.72"/>
    </edge>
    <edge id=":30_2" function="internal">
        <lane id=":30_2_0" index="0" speed="13.90" length="3.93" width="1.75" shape="190.71,104.52 188.77,104.78 187.39,105.28 187.02,105.62"/>
    </edge>
    <edge id=":30_12" function="internal">
        <lane id=":30_12_0" index="0" speed="13.90" length="1.67" width="1.75" shape="187.02,105.62 186.56,106.04 186.28,107.05"/>
    </edge>
    <edge id=":30_3" function="internal">
        <lane id=":30_3_0" index="0" speed="13.90" length="5.64" width="1.75" shape="188.14,107.05 188.30,105.19 188.78,103.84 189.58,103.00 190.71,102.67"/>
    </edge>
    <edge id=":30_4" function="internal">
        <lane id=":30_4_0" index="0" speed="13.90" length="0.38" width="1.75" shape="188.14,107.05 188.51,107.05"/>
    </edge>
    <edge id=":30_5" function="internal">
        <lane id=":30_5_0" index="0" speed="13.90" length="5.20" width="1.75" shape="188.14,107.05 187.86,106.45 187.03,105.86 185.65,105.28 183.71,104.72"/>
    </edge>
    <edge id=":30_6" function="internal">
        <lane id=":30_6_0" index="0" speed="13.90" length="5.38" width="1.75" shape="183.71,102.81 184.84,103.32 185.64,104.19 186.12,105.44 186.28,107.05"/>
    </edge>
    <edge id=":30_7" function="internal">
        <lane id=":30_7_0" index="0" speed="13.90" length="7.06" width="1.75" shape="183.71,102.81 185.75,103.18 187.17,103.14 188.62,102.90 190.71,102.67"/>
    </edge>
    <edge id=":30_8" function="internal">
        <lane id=":30_8_0" index="0" speed="13.90" length="3.63" width="1.75" shape="183.71,102.81 186.21,103.63 187.07,104.14"/>
    </edge>
    <edge id=":30_13" function="internal">
        <lane id=":30_13_0" index="0" speed="13.90" length="3.58" width="1.75" shape="187.07,104.14 187.84,104.61 188.61,105.75 188.51,107.05"/>
    </edge>
    <edge id=":30_9" function="internal">
        <lane id=":30_9_0" index="0" speed="13.90" length="4.09" width="1.75" shape="186.53,107.05 186.57,106.35 186.11,105.73 185.16,105.18 183.71,104.72"/>
    </edge>
    <edge id=":30_10" function="internal">
        <lane id=":30_10_0" index="0" speed="13.90" length="0.25" width="1.75" shape="186.53,107.05 186.28,107.05"/>
    </edge>
    <edge id=":30_11" function="internal">
        <lane id=":30_11_0" index="0" speed="13.90" length="6.38" width="1.75" shape="186.53,107.05 187.40,105.19 188.39,103.84 189.49,103.00 190.71,102.67"/>
    </edge>
    <edge id=":32_0" function="internal">
        <lane id=":32_0_0" index="0" speed="13.90" length="0.35" width="1.75" shape="110.85,56.52 110.75,56.50 110.68,56.49 110.61,56.50 110.50,56.52"/>
    </edge>
    <edge id=":32_1" function="internal">
        <lane id=":32_1_0" index="0" speed="13.90" length="1.10" width="1.75" shape="110.14,54.71 110.46,54.65 110.68,54.63 110.91,54.65 111.23,54.71"/>
    </edge>
    <edge id=":33_0" function="internal">
        <lane id=":33_0_0" index="0" speed="13.90" length="0.11" width="1.75" shape="62.75,66.19 62.72,66.20 62.70,66.21 62.68,66.21 62.65,66.22"/>
    </edge>
    <edge id=":33_1" function="internal">
        <lane id=":33_1_0" index="0" speed="13.90" length="0.33" width="1.75" shape="62.06,64.47 62.15,64.44 62.22,64.42 62.29,64.40 62.38,64.38"/>
    </edge>
    <edge id=":34_0" function="internal">
        <lane id=":34_0_0" index="0" speed="13.90" length="0.10" width="1.75" shape="111.50,132.13 111.49,132.13"/>
    </edge>
    <edge id=":34_1" function="internal">
        <lane id=":34_1_0" index="0" speed="13.90" length="0.10" width="1.75" shape="113.11,131.23 113.12,131.23"/>
    </edge>
    <edge id=":35_0" function="internal">
        <lane id=":35_0_0" index="0" speed="13.90" length="0.10" width="1.75" shape="130.98,167.10 130.97,167.07"/>
    </edge>
    <edge id=":35_1" function="internal">
        <lane id=":35_1_0" index="0" speed="13.90" length="0.24" width="1.75" shape="132.59,166.17 132.62,166.23 132.64,166.28 132.66,166.32 132.69,166.39"/>
    </edge>
    <edge id=":36_0" function="internal">
        <lane id=":36_0_0" index="0" speed="13.90" length="6.57" width="1.75" shape="136.76,229.13 130.66,226.70"/>
    </edge>
    <edge id=":36_1" function="internal">
        <lane id=":36_1_0" index="0" speed="13.90" length="3.08" width="1.75" shape="136.76,229.13 135.18,228.16 134.47,227.17"/>
    </edge>
    <edge id=":36_6" function="internal">
        <lane id=":36_6_0" index="0" speed="13.90" length="3.78" width="1.75" shape="134.47,227.17 134.28,226.90 134.05,225.35 134.50,223.52"/>
    </edge>
    <edge id=":36_2" function="internal">
        <lane id=":36_2_0" index="0" speed="13.90" length="3.92" width="1.75" shape="136.22,224.20 135.96,225.26 136.08,226.15 136.58,226.87 137.48,227.42"/>
    </edge>
    <edge id=":36_3" function="internal">
        <lane id=":36_3_0" index="0" speed="13.90" length="6.89" width="1.75" shape="136.22,224.20 135.29,225.83 134.05,226.78 132.51,227.07 130.66,226.70"/>
    </edge>
    <edge id=":36_4" function="internal">
        <lane id=":36_4_0" index="0" speed="13.90" length="3.92" width="1.75" shape="131.36,224.98 132.39,225.19 133.26,225.01 133.97,224.46 134.50,223.52"/>
    </edge>
    <edge id=":36_5" function="internal">
        <lane id=":36_5_0" index="0" speed="13.90" length="6.59" width="1.75" shape="131.36,224.98 137.48,227.42"/>
    </edge>
    <edge id=":37_0" function="internal">
        <lane id=":37_0_0" index="0" speed="13.90" length="3.91" width="1.75" shape="188.93,155.10 187.98,154.47 187.10,154.27 186.28,154.51 185.52,155.18"/>
    </edge>
    <edge id=":37_1" function="internal">
        <lane id=":37_1_0" index="0" speed="13.90" length="6.74" width="1.75" shape="188.93,155.10 187.47,153.75 186.57,152.71 185.78,151.58 184.62,149.95"/>
    </edge>
    <edge id=":37_2" function="internal">
        <lane id=":37_2_0" index="0" speed="13.90" length="1.25" width="1.75" shape="188.93,155.10 188.89,154.25 189.07,153.89"/>
    </edge>
    <edge id=":37_9" function="internal">
        <lane id=":37_9_0" index="0" speed="13.90" length="1.51" width="1.75" shape="189.07,153.89 189.13,153.77 189.65,153.68 190.46,153.98"/>
    </edge>
    <edge id=":37_3" function="internal">
        <lane id=":37_3_0" index="0" speed="13.90" length="6.84" width="1.75" shape="186.05,148.78 187.24,150.43 188.05,151.57 188.97,152.61 190.46,153.98"/>
    </edge>
    <edge id=":37_4" function="internal">
        <lane id=":37_4_0" index="0" speed="13.90" length="3.31" width="1.75" shape="186.05,148.78 186.86,150.30 187.04,151.88"/>
    </edge>
    <edge id=":37_5" function="internal">
        <lane id=":37_5_0" index="0" speed="13.90" length="1.47" width="1.75" shape="186.05,148.78 186.13,149.61 185.92,150.08 185.81,150.11"/>
    </edge>
    <edge id=":37_10" function="internal">
        <lane id=":37_10_0" index="0" speed="13.90" length="3.68" width="1.75" shape="187.04,151.88 186.59,153.51 185.52,155.18"/>
    </edge>
    <edge id=":37_11" function="internal">
        <lane id=":37_11_0" index="0" speed="13.90" length="1.24" width="1.75" shape="185.81,150.11 185.41,150.20 184.62,149.95"/>
    </edge>
    <edge id=":37_6" function="internal">
        <lane id=":37_6_0" index="0" speed="13.90" length="4.45" width="1.75" shape="184.09,154.02 184.82,152.91 185.15,151.86 185.08,150.87 184.62,149.95"/>
    </edge>
    <edge id=":37_7" function="internal">
        <lane id=":37_7_0" index="0" speed="13.90" length="7.30" width="1.75" shape="184.09,154.02 185.48,152.79 187.00,152.38 188.66,152.77 190.46,153.98"/>
    </edge>
    <edge id=":37_8" function="internal">
        <lane id=":37_8_0" index="0" speed="13.90" length="2.70" width="1.75" shape="184.09,154.02 184.88,153.77 185.39,153.88 185.60,154.35 185.52,155.18"/>
    </edge>
    <edge id=":38_0" function="internal">
        <lane id=":38_0_0" index="0" speed="13.90" length="0.10" width="1.75" shape="171.84,326.09 171.85,326.08"/>
    </edge>
    <edge id=":38_1" function="internal">
        <lane id=":38_1_0" index="0" speed="13.90" length="0.10" width="1.75" shape="172.23,324.26 172.22,324.27"/>
    </edge>
    <edge id=":39_0" function="internal">
        <lane id=":39_0_0" index="0" speed="13.90" length="0.27" width="1.75" shape="226.96,49.78 226.71,49.89"/>
    </edge>
    <edge id=":39_1" function="internal">
        <lane id=":39_1_0" index="0" speed="13.90" length="0.30" width="1.75" shape="225.91,48.22 226.18,48.10"/>
    </edge>
    <edge id=":40_0" function="internal">
        <lane id=":40_0_0" index="0" speed="13.90" length="0.10" width="1.75" shape="214.46,56.32 214.53,56.28"/>
    </edge>
    <edge id=":40_1" function="internal">
        <lane id=":40_1_0" index="0" speed="13.90" length="0.10" width="1.75" shape="213.47,54.76 213.54,54.72"/>
    </edge>
    <edge id=":Custom13_0" function="internal">
        <lane id=":Custom13_0_0" index="0" speed="13.90" length="2.70" width="1.75" shape="249.63,0.44 249.70,-0.39 250.00,-0.81 250.52,-0.83 251.25,-0.44"/>
    </edge>
    <edge id=":Custom14_0" function="internal">
        <lane id=":Custom14_0_0" index="0" speed="13.90" length="2.70" width="1.75" shape="210.67,246.64 211.39,247.06 211.64,247.51 211.44,247.98 210.77,248.48"/>
    </edge>
    <edge id=":Custom22_0" function="internal">
        <lane id=":Custom22_0_0" index="0" speed="13.90" length="2.70" width="1.75" shape="161.43,294.98 160.80,295.52 160.29,295.62 159.91,295.27 159.65,294.48"/>
    </edge>
    <edge id=":Custom25_0" function="internal">
        <lane id=":Custom25_0_0" index="0" speed="13.90" length="2.70" width="1.75" shape="74.73,143.26 74.68,142.43 74.91,141.96 75.42,141.87 76.21,142.14"/>
    </edge>
    <edge id=":Custom31_0" function="internal">
        <lane id=":Custom31_0_0" index="0" speed="13.90" length="2.70" width="1.75" shape="104.19,119.03 104.26,118.20 104.55,117.77 105.07,117.75 105.81,118.13"/>
    </edge>
    <edge id=":cluster_Custom34_cluster_Custom28_Custom37_0" function="internal">
        <lane id=":cluster_Custom34_cluster_Custom28_Custom37_0_0" index="0" speed="13.90" length="3.88" width="1.75" shape="357.84,163.58 357.57,164.45 357.59,165.34 357.89,166.26 358.48,167.20"/>
    </edge>
    <edge id=":cluster_Custom34_cluster_Custom28_Custom37_1" function="internal">
        <lane id=":cluster_Custom34_cluster_Custom28_Custom37_1_0" index="0" speed="13.90" length="3.69" width="1.75" shape="352.99,164.09 354.09,164.13 354.98,163.92 355.68,163.47 356.17,162.78"/>
    </edge>
    <edge id=":cluster_Custom34_cluster_Custom28_Custom37_2" function="internal">
        <lane id=":cluster_Custom34_cluster_Custom28_Custom37_2_0" index="0" speed="13.90" length="6.32" width="1.75" shape="352.99,164.09 354.89,164.40 356.18,164.86 357.25,165.72 358.48,167.20"/>
        <lane id=":cluster_Custom34_cluster_Custom28_Custom37_2_1" index="1" speed="13.90" length="6.32" width="1.75" shape="352.27,165.86 354.02,166.14 355.20,166.57 356.18,167.35 357.31,168.71"/>
    </edge>
    <edge id=":cluster_Custom35_cluster_Custom26_Custom32_0" function="internal">
        <lane id=":cluster_Custom35_cluster_Custom26_Custom32_0_0" index="0" speed="13.90" length="3.68" width="1.75" shape="340.00,177.97 339.48,177.00 338.87,176.31 338.15,175.91 337.32,175.79"/>
    </edge>
    <edge id=":cluster_Custom35_cluster_Custom26_Custom32_1" function="internal">
        <lane id=":cluster_Custom35_cluster_Custom26_Custom32_1_0" index="0" speed="13.90" length="6.32" width="1.75" shape="340.00,177.97 339.32,176.16 339.09,174.82 339.31,173.47 339.98,171.66"/>
        <lane id=":cluster_Custom35_cluster_Custom26_Custom32_1_1" index="1" speed="13.90" length="6.32" width="1.75" shape="341.89,177.71 341.27,176.05 341.05,174.82 341.26,173.58 341.88,171.92"/>
    </edge>
    <edge id=":cluster_Custom35_cluster_Custom26_Custom32_3" function="internal">
        <lane id=":cluster_Custom35_cluster_Custom26_Custom32_3_0" index="0" speed="13.90" length="3.76" width="1.75" shape="337.27,173.94 338.11,173.78 338.84,173.34 339.47,172.64 339.98,171.66"/>
    </edge>
    <edge id=":cluster_Custom36_cluster_Custom27_Custom33_0" function="internal">
        <lane id=":cluster_Custom36_cluster_Custom27_Custom33_0_0" index="0" speed="13.90" length="3.68" width="1.75" shape="356.22,186.79 355.72,186.11 355.03,185.67 354.13,185.47 353.03,185.51"/>
    </edge>
    <edge id=":cluster_Custom36_cluster_Custom27_Custom33_1" function="internal">
        <lane id=":cluster_Custom36_cluster_Custom27_Custom33_1_0" index="0" speed="13.90" length="3.85" width="1.75" shape="358.51,182.37 357.92,183.32 357.62,184.23 357.61,185.12 357.88,185.97"/>
    </edge>
    <edge id=":cluster_Custom36_cluster_Custom27_Custom33_2" function="internal">
        <lane id=":cluster_Custom36_cluster_Custom27_Custom33_2_0" index="0" speed="13.90" length="6.21" width="1.75" shape="358.51,182.37 357.40,183.58 356.11,184.51 354.66,185.15 353.03,185.51"/>
        <lane id=":cluster_Custom36_cluster_Custom27_Custom33_2_1" index="1" speed="13.90" length="6.21" width="1.75" shape="357.33,180.86 356.31,181.97 355.14,182.82 353.80,183.40 352.31,183.73"/>
    </edge>

    <edge id="-0" from="Custom13" to="39" priority="-1" shape="250.44,0.00 251.92,2.75 253.35,5.48 254.69,8.20 255.90,10.87 256.92,13.50 257.72,16.07 258.25,18.57 258.46,20.98 258.32,23.30 257.85,25.52 257.10,27.63 256.09,29.63 254.87,31.52 253.46,33.28 251.91,34.92 250.25,36.42 248.52,37.80 246.74,39.04 244.93,40.17 243.12,41.20 241.34,42.14 239.59,42.99 237.91,43.77 236.32,44.49 234.84,45.16 233.46,45.79 232.16,46.38 230.93,46.94 229.76,47.48 228.63,48.00 227.53,48.50 226.44,49.00">
        <lane id="-0_0" index="0" speed="13.90" length="69.11" width="1.75" shape="251.25,-0.44 252.74,2.32 254.17,5.06 255.53,7.80 256.75,10.51 257.79,13.19 258.62,15.84 259.17,18.43 259.39,20.97 259.24,23.42 258.74,25.77 257.95,27.99 256.89,30.09 255.62,32.06 254.16,33.89 252.56,35.58 250.85,37.13 249.07,38.54 247.25,39.81 245.40,40.96 243.56,42.01 241.76,42.96 239.99,43.83 238.30,44.61 236.70,45.33 235.22,46.00 233.84,46.63 232.54,47.22 231.32,47.78 230.15,48.32 229.01,48.84 227.91,49.34 226.96,49.78"/>
    </edge>
    <edge id="-1" from="39" to="40" priority="-1" shape="226.44,48.99 225.63,49.38 224.81,49.78 224.01,50.18 223.20,50.58 222.40,50.98 221.60,51.38 220.81,51.79 220.03,52.19 219.26,52.60 218.49,53.02 217.73,53.43 216.98,53.84 216.23,54.26 215.48,54.68 214.74,55.10 214.00,55.52">
        <lane id="-1_0" index="0" speed="13.90" length="13.85" width="1.75" shape="226.71,49.89 226.03,50.21 225.22,50.61 224.42,51.01 223.61,51.41 222.81,51.81 222.02,52.20 221.23,52.61 220.46,53.01 219.70,53.41 218.93,53.83 218.17,54.24 217.43,54.65 216.68,55.07 215.93,55.49 215.20,55.90 214.46,56.32"/>
    </edge>
    <edge id="-10" from="30" to="32" priority="-1" shape="182.92,103.57 181.20,103.14 179.47,102.69 177.74,102.21 175.98,101.68 174.19,101.07 172.37,100.38 170.51,99.59 168.61,98.68 166.65,97.63 164.66,96.46 162.67,95.17 160.70,93.78 158.76,92.30 156.89,90.73 155.11,89.10 153.44,87.40 151.90,85.66 150.46,83.88 149.10,82.07 147.79,80.24 146.49,78.40 145.17,76.56 143.80,74.74 142.36,72.92 140.82,71.14 139.19,69.41 137.46,67.73 135.66,66.13 133.78,64.62 131.84,63.22 129.86,61.94 127.83,60.80 125.76,59.80 123.67,58.95 121.55,58.20 119.41,57.56 117.26,56.99 115.09,56.47 112.91,56.00 110.73,55.55">
        <lane id="-10_0" index="0" speed="13.90" length="90.07" width="1.75" shape="183.71,104.72 180.97,104.04 179.23,103.58 177.48,103.10 175.70,102.56 173.88,101.94 172.02,101.24 170.13,100.43 168.19,99.51 166.20,98.44 164.17,97.25 162.15,95.94 160.15,94.53 158.18,93.02 156.28,91.43 154.47,89.77 152.76,88.03 151.19,86.26 149.73,84.45 148.35,82.62 147.04,80.78 145.74,78.94 144.42,77.11 143.07,75.31 141.65,73.51 140.13,71.76 138.53,70.06 136.83,68.41 135.06,66.84 133.22,65.36 131.32,63.98 129.38,62.73 127.40,61.62 125.38,60.65 123.34,59.81 121.26,59.08 119.16,58.45 117.03,57.89 114.88,57.37 112.72,56.91 110.85,56.52"/>
    </edge>
    <edge id="-11" from="32" to="33" priority="-1" shape="110.73,55.53 104.69,56.75 98.66,57.98 92.63,59.20 86.59,60.42 80.56,61.64 74.52,62.86 68.49,64.08 62.46,65.31">
        <lane id="-11_0" index="0" speed="13.90" length="48.72" width="1.75" shape="110.50,56.52 104.87,57.66 98.84,58.89 92.81,60.11 86.77,61.33 80.74,62.55 74.70,63.77 68.67,64.99 62.75,66.19"/>
    </edge>
    <edge id="-14" from="Custom22" to="27" priority="-1" shape="160.54,294.73 161.89,289.90 163.22,285.12 164.50,280.47 165.73,275.99 166.88,271.76 167.93,267.82 168.86,264.24 169.65,261.07 170.29,258.37 170.80,256.08 171.18,254.15 171.47,252.51 171.67,251.12 171.82,249.90 171.93,248.81 172.01,247.77">
        <lane id="-14_0" index="0" speed="13.90" length="49.25" width="1.75" shape="159.65,294.48 161.00,289.65 162.33,284.87 163.61,280.22 164.84,275.75 165.99,271.52 167.04,267.58 167.96,264.01 168.75,260.85 169.39,258.16 169.89,255.89 170.27,253.98 170.56,252.36 170.75,251.00 170.90,249.80 171.01,248.73 171.17,246.67"/>
    </edge>
    <edge id="-16" from="28" to="Custom25" priority="-1" shape="98.08,212.43 98.29,211.72 98.51,211.01 98.72,210.29 98.94,209.54 99.17,208.78 99.40,207.97 99.64,207.13 99.89,206.25 100.15,205.31 100.42,204.33 100.69,203.29 100.97,202.21 101.25,201.08 101.52,199.91 101.79,198.70 102.05,197.45 102.30,196.15 102.52,194.82 102.69,193.44 102.80,192.03 102.82,190.57 102.75,189.08 102.56,187.54 102.23,185.95 101.75,184.33 101.15,182.68 100.43,181.00 99.62,179.31 98.74,177.61 97.82,175.92 96.87,174.24 95.92,172.58 94.98,170.96 94.04,169.35 93.08,167.75 92.11,166.13 91.09,164.49 90.02,162.81 88.88,161.08 87.66,159.27 86.34,157.39 84.95,155.43 83.48,153.40 81.95,151.32 80.37,149.21 78.76,147.05 77.12,144.88 75.47,142.70">
        <lane id="-16_0" index="0" speed="13.90" length="77.94" width="1.75" shape="97.01,212.77 97.40,211.45 97.62,210.74 97.83,210.03 98.05,209.28 98.28,208.52 98.51,207.72 98.75,206.88 99.00,206.00 99.26,205.06 99.53,204.09 99.79,203.06 100.07,201.98 100.35,200.86 100.62,199.71 100.89,198.51 101.14,197.27 101.39,195.99 101.60,194.69 101.77,193.35 101.88,191.99 101.90,190.59 101.83,189.16 101.65,187.69 101.33,186.18 100.87,184.62 100.29,183.02 99.59,181.38 98.79,179.72 97.92,178.04 97.01,176.37 96.07,174.70 95.12,173.04 94.18,171.43 93.24,169.82 92.29,168.23 91.32,166.61 90.31,164.98 89.24,163.31 88.11,161.59 86.90,159.79 85.58,157.92 84.20,155.97 82.73,153.95 81.21,151.87 79.63,149.76 78.02,147.61 76.38,145.44 74.73,143.26"/>
    </edge>
    <edge id="-17" from="27" to="37" priority="-1" shape="174.57,239.54 174.92,238.82 175.26,238.10 175.61,237.37 175.95,236.61 176.30,235.84 176.64,235.04 176.99,234.19 177.34,233.31 177.68,232.38 178.03,231.39 178.40,230.34 178.77,229.19 179.16,227.96 179.58,226.62 180.02,225.16 180.50,223.58 181.01,221.86 181.54,220.03 182.09,218.10 182.63,216.09 183.17,214.04 183.68,211.96 184.16,209.88 184.60,207.81 184.97,205.78 185.30,203.79 185.57,201.84 185.80,199.93 185.99,198.06 186.13,196.24 186.25,194.46 186.33,192.72 186.39,191.03 186.41,189.40 186.39,187.82 186.31,186.30 186.18,184.86 185.98,183.49 185.71,182.20 185.35,180.99 184.90,179.88 184.38,178.85 183.80,177.88 183.18,176.97 182.54,176.08 181.90,175.23 181.26,174.38 180.66,173.52 180.10,172.64 179.60,171.75 179.15,170.86 178.78,169.96 178.47,169.06 178.25,168.17 178.11,167.30 178.06,166.45 178.10,165.62 178.24,164.82 178.46,164.04 178.74,163.28 179.10,162.52 179.50,161.78 179.95,161.04 180.44,160.30 180.95,159.55 181.49,158.81 182.05,158.06 182.63,157.31 183.22,156.56 183.82,155.81 184.43,155.06 185.04,154.31">
        <lane id="-17_0" index="0" speed="13.90" length="91.94" width="1.75" shape="173.32,240.00 174.09,238.42 174.42,237.70 174.77,236.98 175.11,236.23 175.45,235.47 175.79,234.68 176.13,233.84 176.48,232.98 176.81,232.07 177.16,231.08 177.52,230.05 177.89,228.91 178.28,227.68 178.70,226.35 179.13,224.89 179.61,223.31 180.12,221.60 180.65,219.77 181.20,217.85 181.74,215.85 182.27,213.81 182.78,211.75 183.26,209.68 183.69,207.63 184.06,205.62 184.39,203.65 184.65,201.72 184.88,199.83 185.07,197.98 185.21,196.17 185.33,194.41 185.41,192.68 185.47,191.01 185.48,189.40 185.47,187.85 185.39,186.37 185.26,184.97 185.07,183.65 184.81,182.43 184.48,181.30 184.06,180.26 183.57,179.30 183.02,178.38 182.42,177.50 181.79,176.63 181.16,175.79 180.51,174.92 179.89,174.03 179.31,173.12 178.78,172.19 178.31,171.25 177.91,170.29 177.58,169.32 177.34,168.36 177.19,167.40 177.14,166.46 177.18,165.52 177.34,164.61 177.58,163.75 177.89,162.92 178.27,162.10 178.70,161.32 179.17,160.54 179.67,159.78 180.19,159.02 180.75,158.26 181.31,157.50 181.90,156.74 182.50,155.99 183.10,155.23 183.71,154.48 184.09,154.02"/>
    </edge>
    <edge id="-18" from="37" to="cluster_Custom35_cluster_Custom26_Custom32" priority="-1" shape="187.34,151.92 187.64,152.33 187.96,152.77 188.36,153.24 188.87,153.77 189.51,154.38 190.33,155.09 191.36,155.91 192.64,156.87 194.18,157.97 195.98,159.20 198.01,160.52 200.23,161.91 202.63,163.33 205.16,164.76 207.82,166.17 210.56,167.51 213.37,168.78 216.25,169.96 219.21,171.06 222.26,172.06 225.42,172.97 228.69,173.79 232.08,174.52 235.60,175.15 239.27,175.69 243.04,176.13 246.90,176.49 250.81,176.77 254.73,176.98 258.63,177.12 262.49,177.20 266.27,177.22 269.95,177.20 273.52,177.14 277.01,177.04 280.41,176.93 283.74,176.81 287.01,176.68 290.24,176.55 293.42,176.45 296.57,176.36 299.68,176.29 302.75,176.24 305.76,176.19 308.70,176.15 311.58,176.09 314.37,176.03 317.06,175.96 319.67,175.86 322.18,175.74 324.62,175.61 326.99,175.46 329.32,175.31 331.61,175.14 333.87,174.97 339.42,174.80">
        <lane id="-18_0" index="0" speed="13.90" length="151.84" width="1.75" shape="190.46,153.98 190.92,154.38 191.92,155.18 193.19,156.12 194.71,157.21 196.49,158.43 198.51,159.74 200.71,161.12 203.09,162.53 205.60,163.95 208.24,165.35 210.95,166.67 213.74,167.93 216.59,169.10 219.52,170.19 222.53,171.18 225.66,172.08 228.90,172.89 232.26,173.61 235.75,174.24 239.39,174.77 243.14,175.21 246.98,175.57 250.87,175.85 254.77,176.06 258.66,176.20 262.50,176.28 266.27,176.29 269.94,176.28 273.50,176.22 276.98,176.12 280.38,176.01 283.70,175.89 286.97,175.76 290.21,175.63 293.39,175.53 296.55,175.44 299.66,175.37 302.73,175.32 305.75,175.27 308.68,175.23 311.56,175.17 314.35,175.11 317.03,175.04 319.63,174.94 322.13,174.82 324.57,174.69 326.93,174.54 329.26,174.39 331.54,174.22 333.82,174.05 337.27,173.94"/>
    </edge>