<?xml version='1.0' encoding='UTF-8'?>
<edges>
  <edge id="0" from="39" to="Custom13" numLanes="1" width="1.75" shape="-452.672000,-365.368000 -451.584651,-365.866532 -450.483201,-366.371235 -449.353547,-366.888282 -448.181589,-367.423845 -446.953224,-367.984096 -445.654352,-368.575206 -444.270871,-369.203348 -442.788679,-369.874693 -441.199872,-370.596201 -439.521339,-371.377983 -437.776165,-372.230937 -435.987437,-373.165961 -434.178241,-374.193954 -432.371662,-375.325814 -430.590786,-376.572440 -428.858700,-377.944730 -427.200690,-379.450913 -425.650844,-381.088540 -424.245451,-382.852496 -423.020801,-384.737662 -422.013183,-386.738921 -421.258885,-388.851156 -420.794197,-391.069250 -420.655408,-393.388085 -420.865212,-395.801405 -421.391931,-398.298396 -422.190291,-400.867104 -423.215018,-403.495578 -424.420839,-406.171864 -425.762480,-408.884009 -427.194668,-411.620060 -428.672130,-414.368064 "/>
  <edge id="-0" to="39" from="Custom13" numLanes="1" width="1.75" shape="-428.672130,-414.368064 -427.194668,-411.620060 -425.762480,-408.884009 -424.420839,-406.171864 -423.215018,-403.495578 -422.190291,-400.867104 -421.391931,-398.298396 -420.865212,-395.801405 -420.655408,-393.388085 -420.794197,-391.069250 -421.258885,-388.851156 -422.013183,-386.738921 -423.020801,-384.737662 -424.245451,-382.852496 -425.650844,-381.088540 -427.200690,-379.450913 -428.858700,-377.944730 -430.590786,-376.572440 -432.371662,-375.325814 -434.178241,-374.193954 -435.987437,-373.165961 -437.776165,-372.230937 -439.521339,-371.377983 -441.199872,-370.596201 -442.788679,-369.874693 -444.270871,-369.203348 -445.654352,-368.575206 -446.953224,-367.984096 -448.181589,-367.423845 -449.353547,-366.888282 -450.483201,-366.371235 -451.584651,-365.866532 -452.672000,-365.368000 "/>
  <edge id="1" from="40" to="39" numLanes="1" width="1.75" shape="-465.114000,-358.852000 -464.371319,-359.270697 -463.627544,-359.689061 -462.881581,-360.106762 -462.132338,-360.523466 -461.378719,-360.938843 -460.619632,-361.352559 -459.853982,-361.764283 -459.080675,-362.173683 -458.298984,-362.580537 -457.509636,-362.985067 -456.713726,-363.387605 -455.912346,-363.788483 -455.106592,-364.188032 -454.297557,-364.586586 -453.486334,-364.984476 -452.674017,-365.382033 "/>
  <edge id="-1" to="40" from="39" numLanes="1" width="1.75" shape="-452.674017,-365.382033 -453.486334,-364.984476 -454.297557,-364.586586 -455.106592,-364.188032 -455.912346,-363.788483 -456.713726,-363.387605 -457.509636,-362.985067 -458.298984,-362.580537 -459.080675,-362.173683 -459.853982,-361.764283 -460.619632,-361.352559 -461.378719,-360.938843 -462.132338,-360.523466 -462.881581,-360.106762 -463.627544,-359.689061 -464.371319,-359.270697 -465.114000,-358.852000 "/>
  <edge id="2" from="30" to="40" numLanes="1" width="1.75" shape="-491.898905,-315.116999 -491.905744,-316.642693 -491.893637,-318.187546 -491.843639,-319.770720 -491.736805,-321.411374 -491.554190,-323.128668 -491.276848,-324.941763 -490.885834,-326.869819 -490.362202,-328.931995 -489.692115,-331.136144 -488.882164,-333.444882 -487.944049,-335.809518 -486.889469,-338.181361 -485.730124,-340.511719 -484.477712,-342.751902 -483.143934,-344.853216 -481.740488,-346.766973 -480.281395,-348.456155 -478.789959,-349.930454 -477.291804,-351.211238 -475.812557,-352.319873 -474.377840,-353.277728 -473.013281,-354.106168 -471.744503,-354.826562 -470.597132,-355.460276 -469.589458,-356.026478 -468.710436,-356.535532 -467.941688,-356.995601 -467.264835,-357.414851 -466.661497,-357.801444 -466.113296,-358.163546 -465.601853,-358.509319 -465.108789,-358.846928 "/>
  <edge id="-2" to="30" from="40" numLanes="1" width="1.75" shape="-465.108789,-358.846928 -465.601853,-358.509319 -466.113296,-358.163546 -466.661497,-357.801444 -467.264835,-357.414851 -467.941688,-356.995601 -468.710436,-356.535532 -469.589458,-356.026478 -470.597132,-355.460276 -471.744503,-354.826562 -473.013281,-354.106168 -474.377840,-353.277728 -475.812557,-352.319873 -477.291804,-351.211238 -478.789959,-349.930454 -480.281395,-348.456155 -481.740488,-346.766973 -483.143934,-344.853216 -484.477712,-342.751902 -485.730124,-340.511719 -486.889469,-338.181361 -487.944049,-335.809518 -488.882164,-333.444882 -489.692115,-331.136144 -490.362202,-328.931995 -490.885834,-326.869819 -491.276848,-324.941763 -491.554190,-323.128668 -491.736805,-321.411374 -491.843639,-319.770720 -491.893637,-318.187546 -491.905744,-316.642693 -491.898905,-315.116999 "/>
  <edge id="3" from="27" to="Custom14" numLanes="1" width="1.75" shape="-501.730000,-169.410000 -500.166029,-168.939115 -498.585729,-168.477917 -496.972773,-168.036094 -495.310833,-167.623333 -493.583581,-167.249323 -491.774687,-166.923750 -489.867826,-166.656302 -487.846667,-166.456667 -485.700326,-166.331302 -483.439687,-166.273750 -481.081081,-166.274323 -478.640833,-166.323333 -476.135273,-166.411094 -473.580729,-166.527917 -470.993529,-166.664115 -468.390000,-166.810000 "/>
  <edge id="-3" to="27" from="Custom14" numLanes="1" width="1.75" shape="-468.390000,-166.810000 -470.993529,-166.664115 -473.580729,-166.527917 -476.135273,-166.411094 -478.640833,-166.323333 -481.081081,-166.274323 -483.439687,-166.273750 -485.700326,-166.331302 -487.846667,-166.456667 -489.867826,-166.656302 -491.774687,-166.923750 -493.583581,-167.249323 -495.310833,-167.623333 -496.972773,-168.036094 -498.585729,-168.477917 -500.166029,-168.939115 -501.730000,-169.410000 "/>
  <edge id="4" from="29" to="28" numLanes="1" width="1.75" shape="-639.810000,-235.200000 -637.329590,-233.812858 -634.861719,-232.427865 -632.418926,-231.047168 -630.013750,-229.672917 -627.658730,-228.307259 -625.366406,-226.952344 -623.149316,-225.610319 -621.020000,-224.283333 -618.984538,-222.971172 -617.023177,-221.664167 -615.109707,-220.350286 -613.217917,-219.017500 -611.321595,-217.653776 -609.394531,-216.247083 -607.410514,-214.785391 -605.343333,-213.256667 -603.173424,-211.652533 -600.907812,-209.979219 -598.560169,-208.246608 -596.144167,-206.464583 -593.673477,-204.643027 -591.161771,-202.791823 -588.622721,-200.920853 -586.070000,-199.040000 "/>
  <edge id="-4" to="29" from="28" numLanes="1" width="1.75" shape="-586.070000,-199.040000 -588.622721,-200.920853 -591.161771,-202.791823 -593.673477,-204.643027 -596.144167,-206.464583 -598.560169,-208.246608 -600.907812,-209.979219 -603.173424,-211.652533 -605.343333,-213.256667 -607.410514,-214.785391 -609.394531,-216.247083 -611.321595,-217.653776 -613.217917,-219.017500 -615.109707,-220.350286 -617.023177,-221.664167 -618.984538,-222.971172 -621.020000,-224.283333 -623.149316,-225.610319 -625.366406,-226.952344 -627.658730,-228.307259 -630.013750,-229.672917 -632.418926,-231.047168 -634.861719,-232.427865 -637.329590,-233.812858 -639.810000,-235.200000 "/>
  <edge id="5" from="28" to="36" numLanes="1" width="1.75" shape="-578.140000,-196.910000 -576.683519,-196.544473 -575.218151,-196.175781 -573.735010,-195.800762 -572.225208,-195.416250 -570.679860,-195.019082 -569.090078,-194.606094 -567.446976,-194.174121 -565.741667,-193.720000 -563.971693,-193.242389 -562.160312,-192.747240 -560.337214,-192.242324 -558.532083,-191.735417 -556.774609,-191.234290 -555.094479,-190.746719 -553.521380,-190.280475 -552.085000,-189.843333 -550.806611,-189.441003 -549.673828,-189.070937 -548.665850,-188.728529 -547.761875,-188.409167 -546.941104,-188.108242 -546.182734,-187.821146 -545.465967,-187.543268 -544.770000,-187.270000 "/>
  <edge id="-5" to="28" from="36" numLanes="1" width="1.75" shape="-544.770000,-187.270000 -545.465967,-187.543268 -546.182734,-187.821146 -546.941104,-188.108242 -547.761875,-188.409167 -548.665850,-188.728529 -549.673828,-189.070937 -550.806611,-189.441003 -552.085000,-189.843333 -553.521380,-190.280475 -555.094479,-190.746719 -556.774609,-191.234290 -558.532083,-191.735417 -560.337214,-192.242324 -562.160312,-192.747240 -563.971693,-193.242389 -565.741667,-193.720000 -567.446976,-194.174121 -569.090078,-194.606094 -570.679860,-195.019082 -572.225208,-195.416250 -573.735010,-195.800762 -575.218151,-196.175781 -576.683519,-196.544473 -578.140000,-196.910000 "/>
  <edge id="6" from="36" to="27" numLanes="1" width="1.75" shape="-544.770000,-187.270000 -543.548180,-186.754915 -542.315443,-186.231823 -541.060869,-185.692715 -539.773542,-185.129583 -538.442542,-184.534421 -537.056953,-183.899219 -535.605856,-183.215970 -534.078333,-182.476667 -532.468929,-181.677669 -530.794036,-180.832812 -529.075511,-179.960299 -527.335208,-179.078333 -525.594984,-178.205117 -523.876693,-177.358854 -522.202191,-176.557747 -520.593333,-175.820000 -519.066510,-175.159082 -517.616250,-174.569531 -516.231615,-174.041152 -514.901667,-173.563750 -513.615469,-173.127129 -512.362083,-172.721094 -511.130573,-172.335449 -509.910000,-171.960000 "/>
  <edge id="-6" to="36" from="27" numLanes="1" width="1.75" shape="-509.910000,-171.960000 -511.130573,-172.335449 -512.362083,-172.721094 -513.615469,-173.127129 -514.901667,-173.563750 -516.231615,-174.041152 -517.616250,-174.569531 -519.066510,-175.159082 -520.593333,-175.820000 -522.202191,-176.557747 -523.876693,-177.358854 -525.594984,-178.205117 -527.335208,-179.078333 -529.075511,-179.960299 -530.794036,-180.832812 -532.468929,-181.677669 -534.078333,-182.476667 -535.605856,-183.215970 -537.056953,-183.899219 -538.442542,-184.534421 -539.773542,-185.129583 -541.060869,-185.692715 -542.315443,-186.231823 -543.548180,-186.754915 -544.770000,-187.270000 "/>
  <edge id="7" from="Custom15" to="Custom16" numLanes="1" width="1.75" shape="-619.020000,-103.920000 -620.107917,-102.408750 -621.190833,-100.897500 -622.263750,-99.386250 -623.321667,-97.875000 -624.359583,-96.363750 -625.372500,-94.852500 -626.355417,-93.341250 -627.303333,-91.830000 -628.210658,-90.317858 -629.069427,-88.800365 -629.871087,-87.272168 -630.607083,-85.727917 -631.268861,-84.162259 -631.847865,-82.569844 -632.335540,-80.945319 -632.723333,-79.283333 -633.000892,-77.582464 -633.150677,-75.857005 -633.153353,-74.125179 -632.989583,-72.405208 -632.640033,-70.715316 -632.085365,-69.073724 -631.306243,-67.498656 -630.283333,-66.008333 -629.006963,-64.618301 -627.506120,-63.333385 -625.819456,-62.155736 -623.985625,-61.087500 -622.043278,-60.130827 -620.031068,-59.287865 -617.987646,-58.560762 -615.951667,-57.951667 -613.956361,-57.456468 -612.013281,-57.046016 -610.128561,-56.684899 -608.308333,-56.337708 -606.558730,-55.969033 -604.885885,-55.543464 -603.295931,-55.025589 -601.795000,-54.380000 -600.386221,-53.580586 -599.060703,-52.638438 -597.806553,-51.573945 -596.611875,-50.407500 -595.464775,-49.159492 -594.353359,-47.850313 -593.265732,-46.500352 -592.190000,-45.130000 "/>
  <edge id="-7" to="Custom15" from="Custom16" numLanes="1" width="1.75" shape="-592.190000,-45.130000 -593.265732,-46.500352 -594.353359,-47.850313 -595.464775,-49.159492 -596.611875,-50.407500 -597.806553,-51.573945 -599.060703,-52.638438 -600.386221,-53.580586 -601.795000,-54.380000 -603.295931,-55.025589 -604.885885,-55.543464 -606.558730,-55.969033 -608.308333,-56.337708 -610.128561,-56.684899 -612.013281,-57.046016 -613.956361,-57.456468 -615.951667,-57.951667 -617.987646,-58.560762 -620.031068,-59.287865 -622.043278,-60.130827 -623.985625,-61.087500 -625.819456,-62.155736 -627.506120,-63.333385 -629.006963,-64.618301 -630.283333,-66.008333 -631.306243,-67.498656 -632.085365,-69.073724 -632.640033,-70.715316 -632.989583,-72.405208 -633.153353,-74.125179 -633.150677,-75.857005 -633.000892,-77.582464 -632.723333,-79.283333 -632.335540,-80.945319 -631.847865,-82.569844 -631.268861,-84.162259 -630.607083,-85.727917 -629.871087,-87.272168 -629.069427,-88.800365 -628.210658,-90.317858 -627.303333,-91.830000 -626.355417,-93.341250 -625.372500,-94.852500 -624.359583,-96.363750 -623.321667,-97.875000 -622.263750,-99.386250 -621.190833,-100.897500 -620.107917,-102.408750 -619.020000,-103.920000 "/>
  <edge id="8" from="Custom17" to="Custom18" numLanes="1" width="1.75" shape="-611.480000,-119.300000 -612.422500,-117.376250 -613.365000,-115.452500 -614.307500,-113.528750 -615.250000,-111.605000 -616.192500,-109.681250 -617.135000,-107.757500 -618.077500,-105.833750 -619.020000,-103.910000 "/>
  <edge id="-8" to="Custom17" from="Custom18" numLanes="1" width="1.75" shape="-619.020000,-103.910000 -618.077500,-105.833750 -617.135000,-107.757500 -616.192500,-109.681250 -615.250000,-111.605000 -614.307500,-113.528750 -613.365000,-115.452500 -612.422500,-117.376250 -611.480000,-119.300000 "/>
  <edge id="9" from="29" to="33" numLanes="1" width="1.75" shape="-643.030823,-238.394882 -642.774392,-240.312683 -642.533195,-242.234419 -642.322464,-244.164027 -642.157433,-246.105444 -642.053335,-248.062604 -642.025402,-250.039444 -642.088869,-252.039900 -642.258968,-254.067908 -642.544714,-256.124010 -642.930241,-258.195180 -643.393467,-260.264996 -643.912309,-262.317037 -644.464683,-264.334883 -645.028506,-266.302113 -645.581695,-268.202306 -646.102165,-270.019041 -646.573071,-271.742450 -646.998512,-273.388879 -647.387824,-274.981226 -647.750343,-276.542388 -648.095405,-278.095264 -648.432346,-279.662751 -648.770503,-281.267749 -649.119212,-282.933154 -649.483622,-284.675667 -649.852133,-286.487191 -650.208961,-288.353433 -650.538320,-290.260100 -650.824424,-292.192896 -651.051487,-294.137529 -651.203724,-296.079703 -651.265349,-298.005125 -651.227401,-299.901631 -651.108219,-301.765572 -650.932965,-303.595428 -650.726802,-305.389680 -650.514895,-307.146809 -650.322405,-308.865296 -650.174495,-310.543621 -650.096329,-312.180265 -650.101453,-313.776901 -650.156945,-315.347974 -650.218264,-316.911119 -650.240873,-318.483974 -650.180230,-320.084174 -649.991798,-321.729356 -649.631036,-323.437156 -649.053405,-325.225211 -648.224879,-327.102684 -647.153478,-329.044848 -645.857737,-331.018501 -644.356189,-332.990443 -642.667368,-334.927472 -640.809808,-336.796388 -638.802042,-338.563989 -636.662605,-340.197074 -634.409298,-341.671471 -632.056995,-342.999116 -629.619839,-344.200974 -627.111972,-345.298009 -624.547536,-346.311185 -621.940673,-347.261468 -619.305526,-348.169823 -616.656237,-349.057212 "/>
  <edge id="-9" to="29" from="33" numLanes="1" width="1.75" shape="-616.656237,-349.057212 -619.305526,-348.169823 -621.940673,-347.261468 -624.547536,-346.311185 -627.111972,-345.298009 -629.619839,-344.200974 -632.056995,-342.999116 -634.409298,-341.671471 -636.662605,-340.197074 -638.802042,-338.563989 -640.809808,-336.796388 -642.667368,-334.927472 -644.356189,-332.990443 -645.857737,-331.018501 -647.153478,-329.044848 -648.224879,-327.102684 -649.053405,-325.225211 -649.631036,-323.437156 -649.991798,-321.729356 -650.180230,-320.084174 -650.240873,-318.483974 -650.218264,-316.911119 -650.156945,-315.347974 -650.101453,-313.776901 -650.096329,-312.180265 -650.174495,-310.543621 -650.322405,-308.865296 -650.514895,-307.146809 -650.726802,-305.389680 -650.932965,-303.595428 -651.108219,-301.765572 -651.227401,-299.901631 -651.265349,-298.005125 -651.203724,-296.079703 -651.051487,-294.137529 -650.824424,-292.192896 -650.538320,-290.260100 -650.208961,-288.353433 -649.852133,-286.487191 -649.483622,-284.675667 -649.119212,-282.933154 -648.770503,-281.267749 -648.432346,-279.662751 -648.095405,-278.095264 -647.750343,-276.542388 -647.387824,-274.981226 -646.998512,-273.388879 -646.573071,-271.742450 -646.102165,-270.019041 -645.581695,-268.202306 -645.028506,-266.302113 -644.464683,-264.334883 -643.912309,-262.317037 -643.393467,-260.264996 -642.930241,-258.195180 -642.544714,-256.124010 -642.258968,-254.067908 -642.088869,-252.039900 -642.025402,-250.039444 -642.053335,-248.062604 -642.157433,-246.105444 -642.322464,-244.164027 -642.533195,-242.234419 -642.774392,-240.312683 -643.030823,-238.394882 "/>
  <edge id="10" from="32" to="30" numLanes="1" width="1.75" shape="-568.382640,-358.822414 -566.201690,-358.367928 -564.024905,-357.894195 -561.856451,-357.381971 -559.700492,-356.812009 -557.561195,-356.165065 -555.442724,-355.421891 -553.349245,-354.563243 -551.284923,-353.569874 -549.254758,-352.428358 -547.267090,-351.148547 -545.331095,-349.746112 -543.455945,-348.236725 -541.650818,-346.636057 -539.924886,-344.959779 -538.287326,-343.223563 -536.747312,-341.443079 -535.307435,-339.632980 -533.943954,-337.803841 -532.626544,-335.965216 -531.324881,-334.126661 -530.008639,-332.297732 -528.647494,-330.487984 -527.211122,-328.706971 -525.669197,-326.964250 -524.000402,-325.269653 -522.219453,-323.634117 -520.350073,-322.068860 -518.415983,-320.585096 -516.440908,-319.194040 -514.448569,-317.906910 -512.462690,-316.734919 -510.506994,-315.689283 -508.600126,-314.776483 -506.740425,-313.984058 -504.921153,-313.294811 -503.135572,-312.691546 -501.376944,-312.157067 -499.638530,-311.674177 -497.913593,-311.225679 -496.195393,-310.794378 "/>
  <edge id="-10" to="32" from="30" numLanes="1" width="1.75" shape="-496.195393,-310.794378 -497.913593,-311.225679 -499.638530,-311.674177 -501.376944,-312.157067 -503.135572,-312.691546 -504.921153,-313.294811 -506.740425,-313.984058 -508.600126,-314.776483 -510.506994,-315.689283 -512.462690,-316.734919 -514.448569,-317.906910 -516.440908,-319.194040 -518.415983,-320.585096 -520.350073,-322.068860 -522.219453,-323.634117 -524.000402,-325.269653 -525.669197,-326.964250 -527.211122,-328.706971 -528.647494,-330.487984 -530.008639,-332.297732 -531.324881,-334.126661 -532.626544,-335.965216 -533.943954,-337.803841 -535.307435,-339.632980 -536.747312,-341.443079 -538.287326,-343.223563 -539.924886,-344.959779 -541.650818,-346.636057 -543.455945,-348.236725 -545.331095,-349.746112 -547.267090,-351.148547 -549.254758,-352.428358 -551.284923,-353.569874 -553.349245,-354.563243 -555.442724,-355.421891 -557.561195,-356.165065 -559.700492,-356.812009 -561.856451,-357.381971 -564.024905,-357.894195 -566.201690,-358.367928 -568.382640,-358.822414 "/>
  <edge id="11" from="33" to="32" numLanes="1" width="1.75" shape="-616.656640,-349.062414 -610.622435,-350.283976 -604.588229,-351.505539 -598.554024,-352.727101 -592.519818,-353.948663 -586.485613,-355.170225 -580.451407,-356.391787 -574.417202,-357.613349 -568.382996,-358.834911 "/>
  <edge id="-11" to="33" from="32" numLanes="1" width="1.75" shape="-568.382996,-358.834911 -574.417202,-357.613349 -580.451407,-356.391787 -586.485613,-355.170225 -592.519818,-353.948663 -598.554024,-352.727101 -604.588229,-351.505539 -610.622435,-350.283976 -616.656640,-349.062414 "/>
  <edge id="12" from="Custom19" to="Custom20" numLanes="1" width="2.5" shape="-615.500622,-343.220267 -609.466416,-344.441829 -603.432211,-345.663391 -597.398005,-346.884953 -591.363800,-348.106515 -585.329594,-349.328077 -584.807678,-349.433734 -579.295389,-350.549639 -573.261183,-351.771202 -567.226978,-352.992764 "/>
  <edge id="13" from="28" to="Custom21" numLanes="1" width="1.75" shape="-583.160000,-194.010000 -583.661732,-193.003398 -584.166354,-191.994688 -584.676758,-190.981758 -585.195833,-189.962500 -585.726471,-188.934805 -586.271562,-187.896563 -586.833997,-186.845664 -587.416667,-185.780000 -588.022109,-184.697562 -588.651458,-183.596745 -589.305495,-182.476045 -589.985000,-181.333958 -590.690755,-180.168981 -591.423542,-178.979609 -592.184141,-177.764339 -592.973333,-176.521667 -593.789525,-175.249414 -594.621615,-173.942708 -595.456126,-172.596003 -596.279583,-171.203750 -597.078509,-169.760404 -597.839427,-168.260417 -598.548861,-166.698242 -599.193333,-165.068333 -599.763662,-163.366221 -600.267839,-161.591745 -600.718148,-159.745824 -601.126875,-157.829375 -601.506305,-155.843317 -601.868724,-153.788568 -602.226416,-151.666045 -602.591667,-149.476667 -602.974906,-147.225469 -603.379141,-144.933958 -603.805524,-142.627760 -604.255208,-140.332500 -604.729346,-138.073802 -605.229089,-135.877292 -605.755589,-133.768594 -606.310000,-131.773333 -606.892676,-129.909967 -607.500781,-128.168281 -608.130684,-126.530892 -608.778750,-124.980417 -609.441348,-123.499473 -610.114844,-122.070677 -610.795605,-120.676647 -611.480000,-119.300000 "/>
  <edge id="-13" to="28" from="Custom21" numLanes="1" width="1.75" shape="-611.480000,-119.300000 -610.795605,-120.676647 -610.114844,-122.070677 -609.441348,-123.499473 -608.778750,-124.980417 -608.130684,-126.530892 -607.500781,-128.168281 -606.892676,-129.909967 -606.310000,-131.773333 -605.755589,-133.768594 -605.229089,-135.877292 -604.729346,-138.073802 -604.255208,-140.332500 -603.805524,-142.627760 -603.379141,-144.933958 -602.974906,-147.225469 -602.591667,-149.476667 -602.226416,-151.666045 -601.868724,-153.788568 -601.506305,-155.843317 -601.126875,-157.829375 -600.718148,-159.745824 -600.267839,-161.591745 -599.763662,-163.366221 -599.193333,-165.068333 -598.548861,-166.698242 -597.839427,-168.260417 -597.078509,-169.760404 -596.279583,-171.203750 -595.456126,-172.596003 -594.621615,-173.942708 -593.789525,-175.249414 -592.973333,-176.521667 -592.184141,-177.764339 -591.423542,-178.979609 -590.690755,-180.168981 -589.985000,-181.333958 -589.305495,-182.476045 -588.651458,-183.596745 -588.022109,-184.697562 -587.416667,-185.780000 -586.833997,-186.845664 -586.271562,-187.896563 -585.726471,-188.934805 -585.195833,-189.962500 -584.676758,-190.981758 -584.166354,-191.994688 -583.661732,-193.003398 -583.160000,-194.010000 "/>
  <edge id="14" from="27" to="Custom22" numLanes="1" width="1.75" shape="-507.100000,-166.600000 -507.187048,-165.562565 -507.293880,-164.465521 -507.440283,-163.249258 -507.646042,-161.854167 -507.930941,-160.220638 -508.314766,-158.289062 -508.817301,-155.999831 -509.458333,-153.293333 -510.251051,-150.129831 -511.182266,-146.549063 -512.232191,-142.610638 -513.381042,-138.374167 -514.609033,-133.899258 -515.896380,-129.245521 -517.223298,-124.472565 -518.570000,-119.640000 "/>
  <edge id="-14" to="27" from="Custom22" numLanes="1" width="1.75" shape="-518.570000,-119.640000 -517.223298,-124.472565 -515.896380,-129.245521 -514.609033,-133.899258 -513.381042,-138.374167 -512.232191,-142.610638 -511.182266,-146.549063 -510.251051,-150.129831 -509.458333,-153.293333 -508.817301,-155.999831 -508.314766,-158.289062 -507.930941,-160.220638 -507.646042,-161.854167 -507.440283,-163.249258 -507.293880,-164.465521 -507.187048,-165.562565 -507.100000,-166.600000 "/>
  <edge id="15" from="Custom23" to="Custom24" numLanes="1" width="2.5" shape="-512.878623,-168.087516 -512.964972,-167.058405 -513.069619,-165.983808 -513.212335,-164.798173 -513.413271,-163.435778 -513.692831,-161.832866 -514.071366,-159.927911 -514.569022,-157.660905 -515.205814,-154.972308 -515.995212,-151.822059 -516.924066,-148.250364 -517.972319,-144.318213 -519.119976,-140.086144 -520.347130,-135.614288 -521.633921,-130.962560 -522.960520,-126.190748 -524.307119,-121.358555 "/>
  <edge id="16" from="Custom25" to="28" numLanes="1" width="1.75" shape="-603.640000,-271.670000 -601.990752,-269.486768 -600.353516,-267.314141 -598.740303,-265.162725 -597.163125,-263.043125 -595.633994,-260.965947 -594.164922,-258.941797 -592.767920,-256.981279 -591.455000,-255.095000 -590.233825,-253.289336 -589.094661,-251.553750 -588.023428,-249.873477 -587.006042,-248.233750 -586.028421,-246.619805 -585.076484,-245.016875 -584.136149,-243.410195 -583.193333,-241.785000 -582.239840,-240.130563 -581.291016,-238.452318 -580.368089,-236.759736 -579.492292,-235.062292 -578.684854,-233.369456 -577.967005,-231.690703 -577.359977,-230.035505 -576.885000,-228.413333 -576.556803,-226.832021 -576.364115,-225.292839 -576.289160,-223.795413 -576.314167,-222.339375 -576.421361,-220.924352 -576.592969,-219.549974 -576.811217,-218.215869 -577.058333,-216.921667 -577.319043,-215.667308 -577.588073,-214.453984 -577.862650,-213.283200 -578.140000,-212.156458 -578.417350,-211.075264 -578.691927,-210.041120 -578.960957,-209.055531 -579.221667,-208.120000 -579.471976,-207.234707 -579.712578,-206.394531 -579.944860,-205.593027 -580.170208,-204.823750 -580.390010,-204.080254 -580.605651,-203.356094 -580.818519,-202.644824 -581.030000,-201.940000 "/>
  <edge id="-16" to="Custom25" from="28" numLanes="1" width="1.75" shape="-581.030000,-201.940000 -580.818519,-202.644824 -580.605651,-203.356094 -580.390010,-204.080254 -580.170208,-204.823750 -579.944860,-205.593027 -579.712578,-206.394531 -579.471976,-207.234707 -579.221667,-208.120000 -578.960957,-209.055531 -578.691927,-210.041120 -578.417350,-211.075264 -578.140000,-212.156458 -577.862650,-213.283200 -577.588073,-214.453984 -577.319043,-215.667308 -577.058333,-216.921667 -576.811217,-218.215869 -576.592969,-219.549974 -576.421361,-220.924352 -576.314167,-222.339375 -576.289160,-223.795413 -576.364115,-225.292839 -576.556803,-226.832021 -576.885000,-228.413333 -577.359977,-230.035505 -577.967005,-231.690703 -578.684854,-233.369456 -579.492292,-235.062292 -580.368089,-236.759736 -581.291016,-238.452318 -582.239840,-240.130563 -583.193333,-241.785000 -584.136149,-243.410195 -585.076484,-245.016875 -586.028421,-246.619805 -587.006042,-248.233750 -588.023428,-249.873477 -589.094661,-251.553750 -590.233825,-253.289336 -591.455000,-255.095000 -592.767920,-256.981279 -594.164922,-258.941797 -595.633994,-260.965947 -597.163125,-263.043125 -598.740303,-265.162725 -600.353516,-267.314141 -601.990752,-269.486768 -603.640000,-271.670000 "/>
  <edge id="17" from="37" to="27" numLanes="1" width="1.75" shape="-494.070000,-260.060000 -494.681924,-259.307562 -495.290391,-258.555495 -495.891943,-257.804170 -496.483125,-257.053958 -497.060479,-256.305231 -497.620547,-255.558359 -498.159873,-254.813714 -498.675000,-254.071667 -499.161582,-253.331895 -499.611719,-252.591302 -500.016621,-251.846100 -500.367500,-251.092500 -500.655566,-250.326712 -500.872031,-249.544948 -501.008105,-248.743418 -501.055000,-247.918333 -501.006442,-247.067536 -500.866224,-246.195391 -500.640654,-245.307894 -500.336042,-244.411042 -499.958695,-243.510830 -499.514922,-242.613255 -499.011032,-241.724313 -498.453333,-240.850000 -497.849993,-239.992936 -497.216615,-239.142240 -496.570658,-238.283652 -495.929583,-237.402917 -495.310853,-236.485775 -494.731927,-235.517969 -494.210267,-234.485241 -493.763333,-233.373333 -493.404303,-232.171364 -493.129219,-230.881953 -492.929837,-229.511097 -492.797917,-228.064792 -492.725215,-226.549033 -492.703490,-224.969818 -492.724499,-223.333141 -492.780000,-221.645000 -492.863783,-219.910514 -492.977760,-218.131302 -493.125879,-216.308105 -493.312083,-214.441667 -493.540319,-212.532728 -493.814531,-210.582031 -494.138665,-208.590319 -494.516667,-206.558333 -494.949863,-204.490423 -495.429115,-202.405365 -495.942663,-200.325540 -496.478750,-198.273333 -497.025618,-196.271126 -497.571510,-194.341302 -498.104668,-192.506243 -498.613333,-190.788333 -499.088457,-189.204303 -499.531823,-187.748281 -499.947923,-186.408743 -500.341250,-185.174167 -500.716296,-184.033027 -501.077552,-182.973802 -501.429512,-181.984967 -501.776667,-181.055000 -502.122767,-180.173311 -502.468594,-179.333047 -502.814186,-178.528291 -503.159583,-177.753125 -503.504824,-177.001631 -503.849948,-176.267891 -504.194993,-175.545986 -504.540000,-174.830000 "/>
  <edge id="-17" to="37" from="27" numLanes="1" width="1.75" shape="-504.540000,-174.830000 -504.194993,-175.545986 -503.849948,-176.267891 -503.504824,-177.001631 -503.159583,-177.753125 -502.814186,-178.528291 -502.468594,-179.333047 -502.122767,-180.173311 -501.776667,-181.055000 -501.429512,-181.984967 -501.077552,-182.973802 -500.716296,-184.033027 -500.341250,-185.174167 -499.947923,-186.408743 -499.531823,-187.748281 -499.088457,-189.204303 -498.613333,-190.788333 -498.104668,-192.506243 -497.571510,-194.341302 -497.025618,-196.271126 -496.478750,-198.273333 -495.942663,-200.325540 -495.429115,-202.405365 -494.949863,-204.490423 -494.516667,-206.558333 -494.138665,-208.590319 -493.814531,-210.582031 -493.540319,-212.532728 -493.312083,-214.441667 -493.125879,-216.308105 -492.977760,-218.131302 -492.863783,-219.910514 -492.780000,-221.645000 -492.724499,-223.333141 -492.703490,-224.969818 -492.725215,-226.549033 -492.797917,-228.064792 -492.929837,-229.511097 -493.129219,-230.881953 -493.404303,-232.171364 -493.763333,-233.373333 -494.210267,-234.485241 -494.731927,-235.517969 -495.310853,-236.485775 -495.929583,-237.402917 -496.570658,-238.283652 -497.216615,-239.142240 -497.849993,-239.992936 -498.453333,-240.850000 -499.011032,-241.724313 -499.514922,-242.613255 -499.958695,-243.510830 -500.336042,-244.411042 -500.640654,-245.307894 -500.866224,-246.195391 -501.006442,-247.067536 -501.055000,-247.918333 -501.008105,-248.743418 -500.872031,-249.544948 -500.655566,-250.326712 -500.367500,-251.092500 -500.016621,-251.846100 -499.611719,-252.591302 -499.161582,-253.331895 -498.675000,-254.071667 -498.159873,-254.813714 -497.620547,-255.558359 -497.060479,-256.305231 -496.483125,-257.053958 -495.891943,-257.804170 -495.290391,-258.555495 -494.681924,-259.307562 -494.070000,-260.060000 "/>