<?xml version='1.0' encoding='UTF-8'?>
<edges>
  <edge id="0" from="39" to="Custom13" numLanes="1" width="3.5" shape="365.368000,-452.672000 365.866529,-451.584650 366.371229,-450.483198 366.888273,-449.353543 367.423833,-448.181583 367.984081,-446.953217 368.575187,-445.654344 369.203326,-444.270861 369.874667,-442.788667 370.596171,-441.199858 371.377948,-439.521323 372.230897,-437.776147 373.165917,-435.987417 374.193905,-434.178217 375.325760,-432.371635 376.572382,-430.590757 377.944667,-428.858667 379.450845,-427.200652 381.088469,-425.650802 382.852421,-424.245405 384.737583,-423.020750 386.738840,-422.013126 388.851073,-421.258823 391.069165,-420.794129 393.388000,-420.655333 395.801320,-420.865132 398.298313,-421.391844 400.867023,-422.190197 403.495500,-423.214917 406.171789,-424.420730 408.883938,-425.762365 411.619992,-427.194546 414.368000,-428.672000 "/>
  <edge id="-0" to="39" from="Custom13" numLanes="1" width="3.5" shape="414.368000,-428.672000 411.619992,-427.194546 408.883938,-425.762365 406.171789,-424.420730 403.495500,-423.214917 400.867023,-422.190197 398.298313,-421.391844 395.801320,-420.865132 393.388000,-420.655333 391.069165,-420.794129 388.851073,-421.258823 386.738840,-422.013126 384.737583,-423.020750 382.852421,-424.245405 381.088469,-425.650802 379.450845,-427.200652 377.944667,-428.858667 376.572382,-430.590757 375.325760,-432.371635 374.193905,-434.178217 373.165917,-435.987417 372.230897,-437.776147 371.377948,-439.521323 370.596171,-441.199858 369.874667,-442.788667 369.203326,-444.270861 368.575187,-445.654344 367.984081,-446.953217 367.423833,-448.181583 366.888273,-449.353543 366.371229,-450.483198 365.866529,-451.584650 365.368000,-452.672000 "/>
  <edge id="1" from="40" to="39" numLanes="1" width="3.5" shape="358.852000,-465.114000 359.270695,-464.371318 359.689057,-463.627542 360.106756,-462.881578 360.523458,-462.132333 360.938833,-461.378714 361.352547,-460.619625 361.764269,-459.853974 362.173667,-459.080667 362.580519,-458.298974 362.985047,-457.509625 363.387583,-456.713714 363.788458,-455.912333 364.188006,-455.106578 364.586557,-454.297542 364.984445,-453.486318 365.382000,-452.674000 "/>
  <edge id="-1" to="40" from="39" numLanes="1" width="3.5" shape="365.382000,-452.674000 364.984445,-453.486318 364.586557,-454.297542 364.188006,-455.106578 363.788458,-455.912333 363.387583,-456.713714 362.985047,-457.509625 362.580519,-458.298974 362.173667,-459.080667 361.764269,-459.853974 361.352547,-460.619625 360.938833,-461.378714 360.523458,-462.132333 360.106756,-462.881578 359.689057,-463.627542 359.270695,-464.371318 358.852000,-465.114000 "/>
  <edge id="2" from="30" to="40" numLanes="1" width="3.5" shape="315.117000,-491.899000 316.642693,-491.905842 318.187547,-491.893740 319.770721,-491.843746 321.411375,-491.736917 323.128670,-491.554306 324.941766,-491.276969 326.869822,-490.885960 328.932000,-490.362333 331.136150,-489.692252 333.444891,-488.882307 335.809529,-487.944199 338.181375,-486.889625 340.511736,-485.730286 342.751922,-484.477880 344.853240,-483.144107 346.767000,-481.740667 348.456186,-480.281578 349.930490,-478.790146 351.211277,-477.291995 352.319917,-475.812750 353.277775,-474.378036 354.106219,-473.013479 354.826616,-471.744703 355.460333,-470.597333 356.026538,-469.589661 356.535594,-468.710641 356.995665,-467.941894 357.414917,-467.265042 357.801512,-466.661705 358.163615,-466.113505 358.509389,-465.602063 358.847000,-465.109000 "/>
  <edge id="-2" to="30" from="40" numLanes="1" width="3.5" shape="358.847000,-465.109000 358.509389,-465.602063 358.163615,-466.113505 357.801512,-466.661705 357.414917,-467.265042 356.995665,-467.941894 356.535594,-468.710641 356.026538,-469.589661 355.460333,-470.597333 354.826616,-471.744703 354.106219,-473.013479 353.277775,-474.378036 352.319917,-475.812750 351.211277,-477.291995 349.930490,-478.790146 348.456186,-480.281578 346.767000,-481.740667 344.853240,-483.144107 342.751922,-484.477880 340.511736,-485.730286 338.181375,-486.889625 335.809529,-487.944199 333.444891,-488.882307 331.136150,-489.692252 328.932000,-490.362333 326.869822,-490.885960 324.941766,-491.276969 323.128670,-491.554306 321.411375,-491.736917 319.770721,-491.843746 318.187547,-491.893740 316.642693,-491.905842 315.117000,-491.899000 "/>
  <edge id="3" from="27" to="Custom14" numLanes="1" width="3.5" shape="169.410000,-501.730000 168.939115,-500.166029 168.477917,-498.585729 168.036094,-496.972773 167.623333,-495.310833 167.249323,-493.583581 166.923750,-491.774687 166.656302,-489.867826 166.456667,-487.846667 166.331302,-485.700326 166.273750,-483.439687 166.274323,-481.081081 166.323333,-478.640833 166.411094,-476.135273 166.527917,-473.580729 166.664115,-470.993529 166.810000,-468.390000 "/>
  <edge id="-3" to="27" from="Custom14" numLanes="1" width="3.5" shape="166.810000,-468.390000 166.664115,-470.993529 166.527917,-473.580729 166.411094,-476.135273 166.323333,-478.640833 166.274323,-481.081081 166.273750,-483.439687 166.331302,-485.700326 166.456667,-487.846667 166.656302,-489.867826 166.923750,-491.774687 167.249323,-493.583581 167.623333,-495.310833 168.036094,-496.972773 168.477917,-498.585729 168.939115,-500.166029 169.410000,-501.730000 "/>
  <edge id="4" from="29" to="28" numLanes="1" width="3.5" shape="235.200000,-639.810000 233.812858,-637.329590 232.427865,-634.861719 231.047168,-632.418926 229.672917,-630.013750 228.307259,-627.658730 226.952344,-625.366406 225.610319,-623.149316 224.283333,-621.020000 222.971172,-618.984538 221.664167,-617.023177 220.350286,-615.109707 219.017500,-613.217917 217.653776,-611.321595 216.247083,-609.394531 214.785391,-607.410514 213.256667,-605.343333 211.652533,-603.173424 209.979219,-600.907812 208.246608,-598.560169 206.464583,-596.144167 204.643027,-593.673477 202.791823,-591.161771 200.920853,-588.622721 199.040000,-586.070000 "/>
  <edge id="-4" to="29" from="28" numLanes="1" width="3.5" shape="199.040000,-586.070000 200.920853,-588.622721 202.791823,-591.161771 204.643027,-593.673477 206.464583,-596.144167 208.246608,-598.560169 209.979219,-600.907812 211.652533,-603.173424 213.256667,-605.343333 214.785391,-607.410514 216.247083,-609.394531 217.653776,-611.321595 219.017500,-613.217917 220.350286,-615.109707 221.664167,-617.023177 222.971172,-618.984538 224.283333,-621.020000 225.610319,-623.149316 226.952344,-625.366406 228.307259,-627.658730 229.672917,-630.013750 231.047168,-632.418926 232.427865,-634.861719 233.812858,-637.329590 235.200000,-639.810000 "/>
  <edge id="5" from="28" to="36" numLanes="1" width="3.5" shape="196.910000,-578.140000 196.544473,-576.683519 196.175781,-575.218151 195.800762,-573.735010 195.416250,-572.225208 195.019082,-570.679860 194.606094,-569.090078 194.174121,-567.446976 193.720000,-565.741667 193.242389,-563.971693 192.747240,-562.160312 192.242324,-560.337214 191.735417,-558.532083 191.234290,-556.774609 190.746719,-555.094479 190.280475,-553.521380 189.843333,-552.085000 189.441003,-550.806611 189.070938,-549.673828 188.728529,-548.665850 188.409167,-547.761875 188.108242,-546.941104 187.821146,-546.182734 187.543268,-545.465967 187.270000,-544.770000 "/>
  <edge id="-5" to="28" from="36" numLanes="1" width="3.5" shape="187.270000,-544.770000 187.543268,-545.465967 187.821146,-546.182734 188.108242,-546.941104 188.409167,-547.761875 188.728529,-548.665850 189.070938,-549.673828 189.441003,-550.806611 189.843333,-552.085000 190.280475,-553.521380 190.746719,-555.094479 191.234290,-556.774609 191.735417,-558.532083 192.242324,-560.337214 192.747240,-562.160312 193.242389,-563.971693 193.720000,-565.741667 194.174121,-567.446976 194.606094,-569.090078 195.019082,-570.679860 195.416250,-572.225208 195.800762,-573.735010 196.175781,-575.218151 196.544473,-576.683519 196.910000,-578.140000 "/>
  <edge id="6" from="36" to="27" numLanes="1" width="3.5" shape="187.270000,-544.770000 186.754915,-543.548180 186.231823,-542.315443 185.692715,-541.060869 185.129583,-539.773542 184.534421,-538.442542 183.899219,-537.056953 183.215970,-535.605856 182.476667,-534.078333 181.677669,-532.468929 180.832813,-530.794036 179.960299,-529.075511 179.078333,-527.335208 178.205117,-525.594984 177.358854,-523.876693 176.557747,-522.202191 175.820000,-520.593333 175.159082,-519.066510 174.569531,-517.616250 174.041152,-516.231615 173.563750,-514.901667 173.127129,-513.615469 172.721094,-512.362083 172.335449,-511.130573 171.960000,-509.910000 "/>
  <edge id="-6" to="36" from="27" numLanes="1" width="3.5" shape="171.960000,-509.910000 172.335449,-511.130573 172.721094,-512.362083 173.127129,-513.615469 173.563750,-514.901667 174.041152,-516.231615 174.569531,-517.616250 175.159082,-519.066510 175.820000,-520.593333 176.557747,-522.202191 177.358854,-523.876693 178.205117,-525.594984 179.078333,-527.335208 179.960299,-529.075511 180.832813,-530.794036 181.677669,-532.468929 182.476667,-534.078333 183.215970,-535.605856 183.899219,-537.056953 184.534421,-538.442542 185.129583,-539.773542 185.692715,-541.060869 186.231823,-542.315443 186.754915,-543.548180 187.270000,-544.770000 "/>
  <edge id="7" from="Custom15" to="Custom16" numLanes="1" width="3.5" shape="103.920000,-619.020000 102.408750,-620.107917 100.897500,-621.190833 99.386250,-622.263750 97.875000,-623.321667 96.363750,-624.359583 94.852500,-625.372500 93.341250,-626.355417 91.830000,-627.303333 90.317858,-628.210658 88.800365,-629.069427 87.272168,-629.871087 85.727917,-630.607083 84.162259,-631.268861 82.569844,-631.847865 80.945319,-632.335540 79.283333,-632.723333 77.582464,-633.000892 75.857005,-633.150677 74.125179,-633.153353 72.405208,-632.989583 70.715316,-632.640033 69.073724,-632.085365 67.498656,-631.306243 66.008333,-630.283333 64.618301,-629.006963 63.333385,-627.506120 62.155736,-625.819456 61.087500,-623.985625 60.130827,-622.043278 59.287865,-620.031068 58.560762,-617.987646 57.951667,-615.951667 57.456468,-613.956361 57.046016,-612.013281 56.684899,-610.128561 56.337708,-608.308333 55.969033,-606.558730 55.543464,-604.885885 55.025589,-603.295931 54.380000,-601.795000 53.580586,-600.386221 52.638438,-599.060703 51.573945,-597.806553 50.407500,-596.611875 49.159492,-595.464775 47.850313,-594.353359 46.500352,-593.265732 45.130000,-592.190000 "/>
  <edge id="-7" to="Custom15" from="Custom16" numLanes="1" width="3.5" shape="45.130000,-592.190000 46.500352,-593.265732 47.850313,-594.353359 49.159492,-595.464775 50.407500,-596.611875 51.573945,-597.806553 52.638438,-599.060703 53.580586,-600.386221 54.380000,-601.795000 55.025589,-603.295931 55.543464,-604.885885 55.969033,-606.558730 56.337708,-608.308333 56.684899,-610.128561 57.046016,-612.013281 57.456468,-613.956361 57.951667,-615.951667 58.560762,-617.987646 59.287865,-620.031068 60.130827,-622.043278 61.087500,-623.985625 62.155736,-625.819456 63.333385,-627.506120 64.618301,-629.006963 66.008333,-630.283333 67.498656,-631.306243 69.073724,-632.085365 70.715316,-632.640033 72.405208,-632.989583 74.125179,-633.153353 75.857005,-633.150677 77.582464,-633.000892 79.283333,-632.723333 80.945319,-632.335540 82.569844,-631.847865 84.162259,-631.268861 85.727917,-630.607083 87.272168,-629.871087 88.800365,-629.069427 90.317858,-628.210658 91.830000,-627.303333 93.341250,-626.355417 94.852500,-625.372500 96.363750,-624.359583 97.875000,-623.321667 99.386250,-622.263750 100.897500,-621.190833 102.408750,-620.107917 103.920000,-619.020000 "/>
  <edge id="8" from="Custom17" to="Custom18" numLanes="1" width="3.5" shape="119.300000,-611.480000 117.376250,-612.422500 115.452500,-613.365000 113.528750,-614.307500 111.605000,-615.250000 109.681250,-616.192500 107.757500,-617.135000 105.833750,-618.077500 103.910000,-619.020000 "/>
  <edge id="-8" to="Custom17" from="Custom18" numLanes="1" width="3.5" shape="103.910000,-619.020000 105.833750,-618.077500 107.757500,-617.135000 109.681250,-616.192500 111.605000,-615.250000 113.528750,-614.307500 115.452500,-613.365000 117.376250,-612.422500 119.300000,-611.480000 "/>
  <edge id="9" from="29" to="33" numLanes="1" width="3.5" shape="238.394882,-643.030823 240.312683,-642.774392 242.234419,-642.533195 244.164027,-642.322464 246.105444,-642.157433 248.062604,-642.053335 250.039444,-642.025402 252.039900,-642.088869 254.067908,-642.258968 256.124010,-642.544714 258.195180,-642.930241 260.264996,-643.393467 262.317037,-643.912309 264.334883,-644.464683 266.302113,-645.028506 268.202306,-645.581695 270.019041,-646.102165 271.742450,-646.573071 273.388879,-646.998512 274.981226,-647.387824 276.542388,-647.750343 278.095264,-648.095405 279.662751,-648.432346 281.267749,-648.770503 282.933154,-649.119212 284.675667,-649.483622 286.487191,-649.852133 288.353433,-650.208961 290.260100,-650.538320 292.192896,-650.824424 294.137529,-651.051487 296.079703,-651.203724 298.005125,-651.265349 299.901631,-651.227401 301.765572,-651.108219 303.595428,-650.932965 305.389680,-650.726802 307.146809,-650.514895 308.865296,-650.322405 310.543621,-650.174495 312.180265,-650.096329 313.776901,-650.101453 315.347974,-650.156945 316.911119,-650.218264 318.483974,-650.240873 320.084174,-650.180230 321.729356,-649.991798 323.437156,-649.631036 325.225211,-649.053405 327.102684,-648.224879 329.044848,-647.153478 331.018501,-645.857737 332.990443,-644.356189 334.927472,-642.667368 336.796388,-640.809808 338.563989,-638.802042 340.197074,-636.662605 341.671471,-634.409298 342.999116,-632.056995 344.200974,-629.619839 345.298009,-627.111972 346.311185,-624.547536 347.261468,-621.940673 348.169823,-619.305526 349.057212,-616.656237 "/>
  <edge id="-9" to="29" from="33" numLanes="1" width="3.5" shape="349.057212,-616.656237 348.169823,-619.305526 347.261468,-621.940673 346.311185,-624.547536 345.298009,-627.111972 344.200974,-629.619839 342.999116,-632.056995 341.671471,-634.409298 340.197074,-636.662605 338.563989,-638.802042 336.796388,-640.809808 334.927472,-642.667368 332.990443,-644.356189 331.018501,-645.857737 329.044848,-647.153478 327.102684,-648.224879 325.225211,-649.053405 323.437156,-649.631036 321.729356,-649.991798 320.084174,-650.180230 318.483974,-650.240873 316.911119,-650.218264 315.347974,-650.156945 313.776901,-650.101453 312.180265,-650.096329 310.543621,-650.174495 308.865296,-650.322405 307.146809,-650.514895 305.389680,-650.726802 303.595428,-650.932965 301.765572,-651.108219 299.901631,-651.227401 298.005125,-651.265349 296.079703,-651.203724 294.137529,-651.051487 292.192896,-650.824424 290.260100,-650.538320 288.353433,-650.208961 286.487191,-649.852133 284.675667,-649.483622 282.933154,-649.119212 281.267749,-648.770503 279.662751,-648.432346 278.095264,-648.095405 276.542388,-647.750343 274.981226,-647.387824 273.388879,-646.998512 271.742450,-646.573071 270.019041,-646.102165 268.202306,-645.581695 266.302113,-645.028506 264.334883,-644.464683 262.317037,-643.912309 260.264996,-643.393467 258.195180,-642.930241 256.124010,-642.544714 254.067908,-642.258968 252.039900,-642.088869 250.039444,-642.025402 248.062604,-642.053335 246.105444,-642.157433 244.164027,-642.322464 242.234419,-642.533195 240.312683,-642.774392 238.394882,-643.030823 "/>
  <edge id="10" from="32" to="30" numLanes="1" width="3.5" shape="358.822414,-568.382640 358.367928,-566.201690 357.894195,-564.024905 357.381971,-561.856451 356.812009,-559.700492 356.165065,-557.561195 355.421891,-555.442724 354.563243,-553.349245 353.569874,-551.284923 352.428358,-549.254758 351.148547,-547.267090 349.746112,-545.331095 348.236725,-543.455945 346.636057,-541.650818 344.959779,-539.924886 343.223563,-538.287326 341.443079,-536.747312 339.632980,-535.307435 337.803841,-533.943954 335.965216,-532.626544 334.126661,-531.324881 332.297732,-530.008639 330.487984,-528.647494 328.706971,-527.211122 326.964250,-525.669197 325.269653,-524.000402 323.634117,-522.219453 322.068860,-520.350073 320.585096,-518.415983 319.194040,-516.440908 317.906910,-514.448569 316.734919,-512.462690 315.689283,-510.506994 314.776483,-508.600126 313.984058,-506.740425 313.294811,-504.921153 312.691546,-503.135572 312.157067,-501.376944 311.674177,-499.638530 311.225679,-497.913593 310.794378,-496.195393 "/>
  <edge id="-10" to="32" from="30" numLanes="1" width="3.5" shape="310.794378,-496.195393 311.225679,-497.913593 311.674177,-499.638530 312.157067,-501.376944 312.691546,-503.135572 313.294811,-504.921153 313.984058,-506.740425 314.776483,-508.600126 315.689283,-510.506994 316.734919,-512.462690 317.906910,-514.448569 319.194040,-516.440908 320.585096,-518.415983 322.068860,-520.350073 323.634117,-522.219453 325.269653,-524.000402 326.964250,-525.669197 328.706971,-527.211122 330.487984,-528.647494 332.297732,-530.008639 334.126661,-531.324881 335.965216,-532.626544 337.803841,-533.943954 339.632980,-535.307435 341.443079,-536.747312 343.223563,-538.287326 344.959779,-539.924886 346.636057,-541.650818 348.236725,-543.455945 349.746112,-545.331095 351.148547,-547.267090 352.428358,-549.254758 353.569874,-551.284923 354.563243,-553.349245 355.421891,-555.442724 356.165065,-557.561195 356.812009,-559.700492 357.381971,-561.856451 357.894195,-564.024905 358.367928,-566.201690 358.822414,-568.382640 "/>
  <edge id="11" from="33" to="32" numLanes="1" width="3.5" shape="349.062414,-616.656640 350.283976,-610.622435 351.505539,-604.588229 352.727101,-598.554024 353.948663,-592.519818 355.170225,-586.485613 356.391787,-580.451407 357.613349,-574.417202 358.834911,-568.382996 "/>
  <edge id="-11" to="33" from="32" numLanes="1" width="3.5" shape="358.834911,-568.382996 357.613349,-574.417202 356.391787,-580.451407 355.170225,-586.485613 353.948663,-592.519818 352.727101,-598.554024 351.505539,-604.588229 350.283976,-610.622435 349.062414,-616.656640 "/>
  <edge id="12" from="Custom19" to="Custom20" numLanes="1" width="2.5" shape="343.220267,-615.500622 344.441829,-609.466416 345.663391,-603.432211 346.884953,-597.398005 348.106515,-591.363800 349.328077,-585.329594 349.433734,-584.807678 350.549639,-579.295389 351.771202,-573.261183 352.992764,-567.226978 "/>
  <edge id="13" from="28" to="Custom21" numLanes="1" width="3.5" shape="194.010000,-583.160000 193.003398,-583.661732 191.994687,-584.166354 190.981758,-584.676758 189.962500,-585.195833 188.934805,-585.726471 187.896563,-586.271562 186.845664,-586.833997 185.780000,-587.416667 184.697562,-588.022109 183.596745,-588.651458 182.476045,-589.305495 181.333958,-589.985000 180.168981,-590.690755 178.979609,-591.423542 177.764339,-592.184141 176.521667,-592.973333 175.249414,-593.789525 173.942708,-594.621615 172.596003,-595.456126 171.203750,-596.279583 169.760404,-597.078509 168.260417,-597.839427 166.698242,-598.548861 165.068333,-599.193333 163.366221,-599.763662 161.591745,-600.267839 159.745824,-600.718148 157.829375,-601.126875 155.843317,-601.506305 153.788568,-601.868724 151.666045,-602.226416 149.476667,-602.591667 147.225469,-602.974906 144.933958,-603.379141 142.627760,-603.805524 140.332500,-604.255208 138.073802,-604.729346 135.877292,-605.229089 133.768594,-605.755589 131.773333,-606.310000 129.909967,-606.892676 128.168281,-607.500781 126.530892,-608.130684 124.980417,-608.778750 123.499473,-609.441348 122.070677,-610.114844 120.676647,-610.795605 119.300000,-611.480000 "/>
  <edge id="-13" to="28" from="Custom21" numLanes="1" width="3.5" shape="119.300000,-611.480000 120.676647,-610.795605 122.070677,-610.114844 123.499473,-609.441348 124.980417,-608.778750 126.530892,-608.130684 128.168281,-607.500781 129.909967,-606.892676 131.773333,-606.310000 133.768594,-605.755589 135.877292,-605.229089 138.073802,-604.729346 140.332500,-604.255208 142.627760,-603.805524 144.933958,-603.379141 147.225469,-602.974906 149.476667,-602.591667 151.666045,-602.226416 153.788568,-601.868724 155.843317,-601.506305 157.829375,-601.126875 159.745824,-600.718148 161.591745,-600.267839 163.366221,-599.763662 165.068333,-599.193333 166.698242,-598.548861 168.260417,-597.839427 169.760404,-597.078509 171.203750,-596.279583 172.596003,-595.456126 173.942708,-594.621615 175.249414,-593.789525 176.521667,-592.973333 177.764339,-592.184141 178.979609,-591.423542 180.168981,-590.690755 181.333958,-589.985000 182.476045,-589.305495 183.596745,-588.651458 184.697562,-588.022109 185.780000,-587.416667 186.845664,-586.833997 187.896563,-586.271562 188.934805,-585.726471 189.962500,-585.195833 190.981758,-584.676758 191.994687,-584.166354 193.003398,-583.661732 194.010000,-583.160000 "/>
  <edge id="14" from="27" to="Custom22" numLanes="1" width="3.5" shape="167.061460,-506.937359 166.024025,-507.024407 166.000731,-507.026518 164.903686,-507.133351 164.864163,-507.137653 163.647900,-507.284056 163.601699,-507.290243 162.206608,-507.496001 162.161275,-507.503296 160.527746,-507.788195 160.487345,-507.795732 158.555769,-508.179556 158.521616,-508.186698 156.232385,-508.689233 156.204285,-508.695645 153.497788,-509.336677 153.475748,-509.342048 150.312245,-510.134766 150.297159,-510.138618 146.716390,-511.069832 146.706064,-511.072551 142.767639,-512.122476 142.760396,-512.124424 138.523924,-513.273275 138.518839,-513.274662 134.043931,-514.502654 134.040466,-514.503608 129.386729,-515.790955 129.384567,-515.791555 124.610570,-517.118762 119.778005,-518.465464 "/>
  <edge id="-14" to="27" from="Custom22" numLanes="2" width="3.5" shape="119.778005,-518.465464 124.610570,-517.118762 129.384567,-515.791555 129.386729,-515.790955 134.040466,-514.503608 134.043931,-514.502654 138.518839,-513.274662 138.523924,-513.273275 142.760396,-512.124424 142.767639,-512.122476 146.706064,-511.072551 146.716390,-511.069832 150.297159,-510.138618 150.312245,-510.134766 153.475748,-509.342048 153.497788,-509.336677 156.204285,-508.695645 156.232385,-508.689233 158.521616,-508.186698 158.555769,-508.179556 160.487345,-507.795732 160.527746,-507.788195 162.161275,-507.503296 162.206608,-507.496001 163.601699,-507.290243 163.647900,-507.284056 164.864163,-507.137653 164.903686,-507.133351 166.000731,-507.026518 166.024025,-507.024407 167.061460,-506.937359 "/>
  <edge id="16" from="Custom23" to="28" numLanes="1" width="3.5" shape="271.670000,-603.640000 269.486768,-601.990752 267.314141,-600.353516 265.162725,-598.740303 263.043125,-597.163125 260.965947,-595.633994 258.941797,-594.164922 256.981279,-592.767920 255.095000,-591.455000 253.289336,-590.233825 251.553750,-589.094661 249.873477,-588.023428 248.233750,-587.006042 246.619805,-586.028421 245.016875,-585.076484 243.410195,-584.136149 241.785000,-583.193333 240.130563,-582.239840 238.452318,-581.291016 236.759736,-580.368089 235.062292,-579.492292 233.369456,-578.684854 231.690703,-577.967005 230.035505,-577.359977 228.413333,-576.885000 226.832021,-576.556803 225.292839,-576.364115 223.795413,-576.289160 222.339375,-576.314167 220.924352,-576.421361 219.549974,-576.592969 218.215869,-576.811217 216.921667,-577.058333 215.667308,-577.319043 214.453984,-577.588073 213.283200,-577.862650 212.156458,-578.140000 211.075264,-578.417350 210.041120,-578.691927 209.055531,-578.960957 208.120000,-579.221667 207.234707,-579.471976 206.394531,-579.712578 205.593027,-579.944860 204.823750,-580.170208 204.080254,-580.390010 203.356094,-580.605651 202.644824,-580.818519 201.940000,-581.030000 "/>
  <edge id="-16" to="Custom23" from="28" numLanes="1" width="3.5" shape="201.940000,-581.030000 202.644824,-580.818519 203.356094,-580.605651 204.080254,-580.390010 204.823750,-580.170208 205.593027,-579.944860 206.394531,-579.712578 207.234707,-579.471976 208.120000,-579.221667 209.055531,-578.960957 210.041120,-578.691927 211.075264,-578.417350 212.156458,-578.140000 213.283200,-577.862650 214.453984,-577.588073 215.667308,-577.319043 216.921667,-577.058333 218.215869,-576.811217 219.549974,-576.592969 220.924352,-576.421361 222.339375,-576.314167 223.795413,-576.289160 225.292839,-576.364115 226.832021,-576.556803 228.413333,-576.885000 230.035505,-577.359977 231.690703,-577.967005 233.369456,-578.684854 235.062292,-579.492292 236.759736,-580.368089 238.452318,-581.291016 240.130563,-582.239840 241.785000,-583.193333 243.410195,-584.136149 245.016875,-585.076484 246.619805,-586.028421 248.233750,-587.006042 249.873477,-588.023428 251.553750,-589.094661 253.289336,-590.233825 255.095000,-591.455000 256.981279,-592.767920 258.941797,-594.164922 260.965947,-595.633994 263.043125,-597.163125 265.162725,-598.740303 267.314141,-600.353516 269.486768,-601.990752 271.670000,-603.640000 "/>
  <edge id="17" from="37" to="27" numLanes="1" width="3.5" shape="260.060000,-494.070000 259.307562,-494.681924 258.555495,-495.290391 257.804170,-495.891943 257.053958,-496.483125 256.305231,-497.060479 255.558359,-497.620547 254.813714,-498.159873 254.071667,-498.675000 253.331895,-499.161582 252.591302,-499.611719 251.846100,-500.016621 251.092500,-500.367500 250.326712,-500.655566 249.544948,-500.872031 248.743418,-501.008105 247.918333,-501.055000 247.067536,-501.006442 246.195391,-500.866224 245.307894,-500.640654 244.411042,-500.336042 243.510830,-499.958695 242.613255,-499.514922 241.724313,-499.011032 240.850000,-498.453333 239.992936,-497.849993 239.142240,-497.216615 238.283652,-496.570658 237.402917,-495.929583 236.485775,-495.310853 235.517969,-494.731927 234.485241,-494.210267 233.373333,-493.763333 232.171364,-493.404303 230.881953,-493.129219 229.511097,-492.929837 228.064792,-492.797917 226.549033,-492.725215 224.969818,-492.703490 223.333141,-492.724499 221.645000,-492.780000 219.910514,-492.863783 218.131302,-492.977760 216.308105,-493.125879 214.441667,-493.312083 212.532728,-493.540319 210.582031,-493.814531 208.590319,-494.138665 206.558333,-494.516667 204.490423,-494.949863 202.405365,-495.429115 200.325540,-495.942663 198.273333,-496.478750 196.271126,-497.025618 194.341302,-497.571510 192.506243,-498.104668 190.788333,-498.613333 189.204303,-499.088457 187.748281,-499.531823 186.408743,-499.947923 185.174167,-500.341250 184.033027,-500.716296 182.973802,-501.077552 181.984967,-501.429512 181.055000,-501.776667 180.173311,-502.122767 179.333047,-502.468594 178.528291,-502.814186 177.753125,-503.159583 177.001631,-503.504824 176.267891,-503.849948 175.545986,-504.194993 174.830000,-504.540000 "/>
  <edge id="-17" to="37" from="27" numLanes="1" width="3.5" shape="174.830000,-504.540000 175.545986,-504.194993 176.267891,-503.849948 177.001631,-503.504824 177.753125,-503.159583 178.528291,-502.814186 179.333047,-502.468594 180.173311,-502.122767 181.055000,-501.776667 181.984967,-501.429512 182.973802,-501.077552 184.033027,-500.716296 185.174167,-500.341250 186.408743,-499.947923 187.748281,-499.531823 189.204303,-499.088457 190.788333,-498.613333 192.506243,-498.104668 194.341302,-497.571510 196.271126,-497.025618 198.273333,-496.478750 200.325540,-495.942663 202.405365,-495.429115 204.490423,-494.949863 206.558333,-494.516667 208.590319,-494.138665 210.582031,-493.814531 212.532728,-493.540319 214.441667,-493.312083 216.308105,-493.125879 218.131302,-492.977760 219.910514,-492.863783 221.645000,-492.780000 223.333141,-492.724499 224.969818,-492.703490 226.549033,-492.725215 228.064792,-492.797917 229.511097,-492.929837 230.881953,-493.129219 232.171364,-493.404303 233.373333,-493.763333 234.485241,-494.210267 235.517969,-494.731927 236.485775,-495.310853 237.402917,-495.929583 238.283652,-496.570658 239.142240,-497.216615 239.992936,-497.849993 240.850000,-498.453333 241.724313,-499.011032 242.613255,-499.514922 243.510830,-499.958695 244.411042,-500.336042 245.307894,-500.640654 246.195391,-500.866224 247.067536,-501.006442 247.918333,-501.055000 248.743418,-501.008105 249.544948,-500.872031 250.326712,-500.655566 251.092500,-500.367500 251.846100,-500.016621 252.591302,-499.611719 253.331895,-499.161582 254.071667,-498.675000 254.813714,-498.159873 255.558359,-497.620547 256.305231,-497.060479 257.053958,-496.483125 257.804170,-495.891943 258.555495,-495.290391 259.307562,-494.681924 260.060000,-494.070000 "/>
  <edge id="18" from="Custom24" to="37" numLanes="1" width="3.5" shape="239.570000,-342.990000 239.396702,-345.240837 239.226120,-347.504193 239.060967,-349.792588 238.903958,-352.118542 238.757809,-354.494574 238.625234,-356.933203 238.508949,-359.446950 238.411667,-362.048333 238.334694,-364.746309 238.273698,-367.535573 238.222936,-370.407259 238.176667,-373.352500 238.129147,-376.362428 238.074635,-379.428177 238.007389,-382.540879 237.921667,-385.691667 237.814196,-388.874863 237.691589,-392.097552 237.562926,-395.370007 237.437292,-398.702500 237.323766,-402.105306 237.231432,-405.588698 237.169372,-409.162949 237.146667,-412.838333 237.171901,-416.618079 237.251667,-420.477240 237.392057,-424.383822 237.599167,-428.305833 237.879089,-432.211283 238.237917,-436.068177 238.681745,-439.844525 239.216667,-443.508333 239.847503,-447.034691 240.573984,-450.427005 241.394567,-453.695765 242.307708,-456.851458 243.311865,-459.904574 244.405495,-462.865599 245.587054,-465.745023 246.855000,-468.553333 248.203057,-471.294684 249.606016,-473.947891 251.033936,-476.485433 252.456875,-478.879792 253.844893,-481.103447 255.168047,-483.128880 256.396396,-484.928571 257.500000,-486.475000 258.457129,-487.751084 259.278906,-488.781484 259.984668,-489.601299 260.593750,-490.245625 261.125488,-490.749561 261.599219,-491.148203 262.034277,-491.476650 262.450000,-491.770000 "/>