<?xml version='1.0' encoding='UTF-8'?>
<nodes>
  <node id="32" x="-568.38282" y="-358.82866"/>
  <node id="33" x="-616.65644" y="-349.05981"/>
  <node id="34" x="-566.80623" y="-282.69042"/>
  <node id="35" x="-547.331" y="-247.7555"/>
  <node id="36" x="-544.26" y="-188.89"/>
  <node id="37" x="-491.77" y="-262.45"/>
  <node id="38" x="-507.075" y="-89.195"/>
  <node id="39" x="-452.67301" y="-365.37502"/>
  <node id="40" x="-465.11139" y="-358.84946"/>
  <node id="27" x="-505.83" y="-170.71" shape="-510.213098,-168.410337 -503.530337,-166.326902 -501.446902,-173.009663 -508.129663,-175.093098 -510.213098,-168.410337"/>
  <node id="28" x="-582.106" y="-197.976" shape="-586.392616,-195.501141 -579.631141,-193.689384 -577.819384,-200.450859 -584.580859,-202.262616 -586.392616,-195.501141"/>
  <node id="29" x="-642.345" y="-235.867" shape="-646.248743,-236.913003 -641.298994,-231.963258 -639.487263,-238.724739 -646.248743,-236.913003"/>
  <node id="30" x="-491.9" y="-310.82" shape="-495.399994,-314.320006 -495.400006,-307.320006 -488.400006,-307.319994 -488.399994,-314.319994 -495.399994,-314.320006"/>
  <node id="Custom13" x="-428.672130026" y="-414.368063686"/>
  <node id="Custom14" x="-468.39" y="-166.81"/>
  <node id="Custom15" x="-619.02" y="-103.92"/>
  <node id="Custom16" x="-592.19" y="-45.13"/>
  <node id="Custom17" x="-611.48" y="-119.3"/>
  <node id="Custom18" x="-619.02" y="-103.91"/>
  <node id="Custom19" x="-615.74864005" y="-344.44541426"/>
  <node id="Custom20" x="-567.474996109" y="-354.217911415"/>
  <node id="Custom21" x="-611.48" y="-119.3"/>
  <node id="Custom22" x="-518.57" y="-119.64"/>
  <node id="Custom23" x="-511.633" y="-167.983"/>
  <node id="Custom24" x="-523.103" y="-121.023"/>
  <node id="Custom25" x="-603.64" y="-271.67"/>
  <node id="Custom26" x="-342.99" y="-239.57"/>
  <node id="Custom27" x="-321.39" y="-227.1"/>
  <node id="Custom28" x="-321.4" y="-252.04"/>
  <node id="Custom29" x="-542.941" y="-249.564"/>
  <node id="Custom30" x="-562.412465946" y="-284.504835907"/>
  <node id="Custom31" x="-574.11079973" y="-295.791813465"/>
  <node id="Custom32" x="-338.59" y="-239.57"/>
  <node id="Custom33" x="-323.628110873" y="-230.887854166"/>
  <node id="Custom34" x="-323.628110873" y="-248.252145834"/>
  <node id="Custom35" x="-338.59" y="-239.57"/>
  <node id="Custom36" x="-323.551985691" y="-230.93180506"/>
  <node id="Custom37" x="-323.590000021" y="-248.23025405"/>
</nodes>
