<?xml version='1.0' encoding='UTF-8'?>
<nodes>
  <node id="-720" x="-5.672665" y="-13.963351" shape="-4.962501,-19.245970 -4.951028,-19.249266 -4.939721,-19.245438 -0.540442,-16.041495 -0.534047,-16.033688 2.391773,-9.674476 2.393545,-9.664586 2.390284,-9.655082 -1.495630,-6.500848 -1.506317,-6.496471 -8.376803,-7.866609 -8.386893,-7.871944 -10.815283,-15.370998 -10.815432,-15.382827 -10.808873,-15.392671 -4.962501,-19.245970 -4.962501,-19.245970"/>
  <node id="-726" x="-195.256404" y="-239.480436" shape="-196.283368,-244.710708 -196.275323,-244.716875 -196.265287,-244.718306 -193.083336,-244.351873 -193.073888,-244.348199 -193.067455,-244.340364 -190.141445,-237.981240 -190.139862,-237.969737 -190.144937,-237.959293 -193.345911,-234.501381 -193.355933,-234.495516 -193.367523,-234.496208 -199.933209,-236.923505 -199.942153,-236.930105 -200.581686,-239.165379 -200.581647,-239.176494 -196.283368,-244.710708 -196.283368,-244.710708"/>
  <node id="-708" x="-8.189265" y="-28.973327" shape="-9.724914,-34.077461 -9.716198,-34.085039 -6.017036,-33.844790 -6.006220,-33.840738 -3.074349,-27.473984 -3.072766,-27.462481 -3.077841,-27.452037 -6.278915,-23.994217 -6.288937,-23.988353 -6.300528,-23.989045 -12.866143,-26.416531 -12.875442,-26.423608 -13.458203,-28.137736 -13.458562,-28.149416 -9.724914,-34.077461 -9.724914,-34.077461"/>
  <node id="-1270" x="-291.941905" y="-336.588666" shape="-295.108425,-343.765263 -295.098488,-343.771733 -295.086635,-343.771439 -291.901183,-341.920943 -286.656627,-337.278768 -286.650542,-337.268879 -286.650976,-337.257275 -289.306256,-334.255480 -289.812428,-333.785980 -295.389978,-329.552958 -295.400867,-329.548925 -295.412161,-329.551622 -299.649756,-335.132841 -299.653770,-335.143451 -299.583638,-338.366492 -299.580184,-338.377298 -295.108425,-343.765263 -295.108425,-343.765263"/>
  <node id="-1272" x="-102.251307" y="-337.464894" shape="-105.234597,-341.887890 -105.224165,-341.891603 -98.275518,-341.015035 -94.492347,-338.584573 -94.485528,-338.577182 -94.483168,-338.567406 -96.701165,-331.921761 -96.707995,-331.912201 -98.352261,-330.656212 -98.363281,-330.652137 -105.352273,-330.259729 -105.363789,-330.262610 -105.371643,-330.271511 -106.886933,-334.824846 -106.887556,-334.835142 -105.494162,-341.695059 -105.489040,-341.704876 -105.234597,-341.887890 -105.234597,-341.887890"/>
  <node id="-1292" x="-463.345244" y="-79.882497" shape="-460.381501,-84.314065 -460.370488,-84.311217 -460.362809,-84.302823 -458.559867,-77.535038 -458.560226,-77.523547 -459.513490,-76.170612 -459.522537,-76.163518 -466.504748,-75.589720 -466.514720,-75.591473 -467.948362,-77.186209 -467.952998,-77.195210 -466.633128,-84.077758 -466.627894,-84.087859 -466.617999,-84.093471 -460.381501,-84.314065 -460.381501,-84.314065"/>
  <node id="-1312" x="-599.538829" y="-231.71507" shape="-597.847572,-236.769776 -597.837664,-236.771178 -597.828317,-236.767606 -594.382157,-233.073834 -594.377379,-233.065042 -594.377458,-233.055036 -597.505144,-226.788152 -597.511869,-226.780493 -599.686242,-226.382467 -599.696404,-226.383254 -604.838376,-231.144806 -604.844287,-231.155049 -604.324661,-234.071007 -604.319232,-234.081512 -597.847572,-236.769776 -597.847572,-236.769776"/>
  <node id="-1258" x="-321.363343" y="-238.564397"/>
  <node id="-1256" x="-304.560452" y="-246.296282" shape="-303.073128,-251.414706 -303.061873,-251.416352 -300.850787,-250.129711 -300.842993,-250.121426 -300.267046,-243.137633 -300.269622,-243.126056 -302.652453,-241.314918 -302.663601,-241.310869 -309.237211,-243.739267 -309.246458,-243.746272 -309.250261,-243.757232 -309.437028,-248.455005 -309.434108,-248.466231 -309.425446,-248.473949 -303.073128,-251.414706 -303.073128,-251.414706"/>
  <node id="-1198" x="-465.189928" y="-263.335199" shape="-463.184982,-268.621956 -463.173349,-268.623561 -463.162820,-268.618359 -459.710450,-263.734494 -459.706793,-263.723606 -459.709729,-263.712502 -464.078148,-257.927502 -464.087384,-257.920719 -464.098826,-257.920118 -470.143178,-261.449746 -470.151110,-261.458336 -470.152883,-261.469893 -469.544196,-265.656311 -469.539185,-265.666907 -463.184982,-268.621956 -463.184982,-268.621956"/>
  <node id="-1254" x="-324.574903" y="-245.501622" shape="-326.483905,-250.482179 -326.473434,-250.486880 -319.898151,-248.058650 -319.888904,-248.051645 -319.885102,-248.040685 -319.698321,-243.342913 -319.701241,-243.331686 -319.709903,-243.323969 -326.062212,-240.383193 -326.073894,-240.381614 -327.768673,-241.228514 -327.777193,-241.236661 -329.234795,-248.089248 -329.233859,-248.100688 -326.483905,-250.482179 -326.483905,-250.482179"/>
  <node id="-106" x="-121.840063" y="-248.922045"/>
  <node id="-104" x="-132.81822" y="-241.66582"/>
  <node id="-798" x="-471.36587" y="-166.673535" shape="-473.318031,-171.638590 -473.306729,-171.640157 -466.714080,-169.275698 -463.674127,-168.009734 -463.665211,-168.002419 -463.661817,-167.991397 -465.638540,-161.270286 -465.644812,-161.260661 -468.196864,-159.496123 -468.207339,-159.492594 -475.201026,-159.830876 -475.212095,-159.834879 -475.218995,-159.844415 -476.384593,-164.864134 -476.383741,-164.875933 -473.837021,-171.396226 -473.830010,-171.405229 -473.318031,-171.638590 -473.318031,-171.638590"/>
  <node id="-792" x="-541.657962" y="-193.834122" shape="-542.640854,-201.618027 -542.629168,-201.618698 -536.024772,-199.292837 -536.015463,-199.286036 -536.011455,-199.275227 -536.779795,-195.984358 -538.858185,-189.298524 -538.864721,-189.288899 -540.504033,-188.625619 -540.515622,-188.624586 -546.659425,-191.991360 -549.482782,-194.287131 -549.489367,-194.297062 -549.489136,-194.308975 -545.987783,-200.374997 -545.979221,-200.382978 -542.640854,-201.618027 -542.640854,-201.618027"/>
  <node id="-94" x="-696.642595" y="-516.884069"/>
  <node id="-716" x="6.52284" y="-15.427825" shape="4.612504,-20.406941 4.622526,-20.412805 4.634117,-20.412113 11.199726,-17.984608 11.208660,-17.978021 11.693589,-16.741103 11.694607,-16.730050 8.519009,-10.485588 8.512329,-10.478050 8.502823,-10.474723 4.351521,-10.556326 4.341826,-10.559053 4.334689,-10.566159 1.407925,-16.927174 1.406343,-16.938677 1.411418,-16.949120 4.612504,-20.406941 4.612504,-20.406941"/>
  <node id="-738" x="-194.695675" y="-225.373254" shape="-193.208260,-230.491652 -193.196760,-230.493261 -193.186305,-230.488210 -189.720858,-227.294755 -189.714971,-227.284746 -189.715637,-227.273154 -192.128406,-220.702116 -192.135521,-220.692760 -192.879721,-220.356812 -192.891382,-220.355343 -199.416953,-222.899405 -199.426024,-222.906500 -199.429678,-222.917421 -199.572219,-227.532241 -199.569245,-227.543366 -199.560630,-227.551008 -193.208260,-230.491652 -193.208260,-230.491652"/>
  <node id="-732" x="-177.89268" y="-233.104765" shape="-176.405250,-238.223159 -176.393877,-238.224787 -176.383484,-238.219888 -172.968287,-235.152326 -172.962304,-235.142517 -172.962707,-235.131034 -175.207136,-228.500609 -175.214056,-228.491039 -175.988266,-228.121240 -175.999952,-228.119528 -182.569492,-230.547847 -182.578739,-230.554852 -182.582541,-230.565812 -182.769211,-235.263589 -182.766291,-235.274816 -182.757629,-235.282532 -176.405250,-238.223159 -176.405250,-238.223159"/>
  <node id="-1266" x="-314.96437" y="-255.874277" shape="-311.939473,-260.262944 -311.929505,-260.261524 -311.921493,-260.255427 -309.987416,-257.793523 -309.983389,-257.784295 -309.984369,-257.774274 -312.397010,-251.203189 -312.404013,-251.193913 -312.414991,-251.190098 -317.134256,-251.002680 -317.145502,-251.005613 -317.153218,-251.014304 -320.079361,-257.373367 -320.081008,-257.384429 -318.910091,-259.464388 -318.902094,-259.472206 -311.939473,-260.262944 -311.939473,-260.262944"/>
  <node id="-1260" x="-314.170986" y="-235.92366" shape="-312.001095,-240.795255 -311.989848,-240.792322 -311.982132,-240.783631 -309.055997,-234.424564 -309.054423,-234.413005 -310.539327,-232.016425 -310.548100,-232.008737 -317.552790,-231.803733 -317.563935,-231.806742 -319.148441,-234.005078 -319.152195,-234.015994 -316.738351,-240.594745 -316.731349,-240.604020 -316.720371,-240.607836 -312.001095,-240.795255 -312.001095,-240.795255"/>
  <node id="-1186" x="-582.999239" y="-503.432912" shape="-587.741384,-509.681308 -587.733504,-509.689738 -587.722278,-509.692411 -577.893455,-504.957434 -577.884976,-504.949688 -577.882156,-504.938555 -580.811292,-498.572533 -580.818521,-498.564152 -586.274329,-496.309942 -586.285994,-496.308837 -586.296276,-496.314455 -590.668086,-501.783914 -590.672347,-501.794254 -590.845280,-503.395111 -590.843325,-503.406122 -587.741384,-509.681308 -587.741384,-509.681308"/>
  <node id="-1320" x="-506.089569" y="-183.051457" shape="-508.581063,-187.769011 -508.570188,-187.771669 -501.755716,-186.154378 -501.746860,-186.149697 -500.901246,-184.292580 -500.899518,-184.282714 -504.163635,-178.081429 -504.171804,-178.073163 -504.183190,-178.070835 -510.933085,-180.827593 -510.942102,-180.834924 -510.945521,-180.846031 -508.936502,-187.557605 -508.930417,-187.567002 -508.581063,-187.769011 -508.581063,-187.769011"/>
  <node id="-460" x="-572.654719" y="-93.35396"/>
  <node id="-462" x="-566.709962" y="-109.868706"/>
  <node id="-1302" x="-465.405354" y="-316.503792" shape="-463.735571,-323.758052 -463.724149,-323.756243 -463.715637,-323.748415 -461.703672,-320.344729 -461.099481,-313.362160 -461.101620,-313.351295 -463.419252,-308.843995 -463.426979,-308.835854 -463.437874,-308.833158 -470.255098,-310.438849 -470.263967,-310.443519 -472.230229,-312.633748 -472.235125,-312.644144 -472.596669,-319.636743 -472.593800,-319.648142 -470.685065,-322.797659 -470.676350,-322.805449 -463.735571,-323.758052 -463.735571,-323.758052"/>
  <node id="-712" x="5.962571" y="-29.534512" shape="6.895105,-34.786304 6.906389,-34.784865 11.288151,-29.314060 11.292486,-29.302979 10.838524,-27.370172 10.832476,-27.359925 4.474993,-24.416161 4.463493,-24.414553 4.453038,-24.419604 0.987696,-27.613161 0.981809,-27.623170 0.982476,-27.634762 3.395443,-34.205728 3.402239,-34.214850 6.895105,-34.786304 6.895105,-34.786304"/>
  <node id="Custom27" x="-542.278045" y="-301.601728"/>
  <node id="Custom28" x="744.590862" y="28.245814"/>
  <node id="Custom29" x="-568.951448" y="-271.589133"/>
  <node id="Custom30" x="-478.849318" y="-111.792101"/>
  <node id="Custom31" x="742.226448" y="54.718216"/>
  <node id="Custom32" x="-544.473449" y="-31.766493"/>
  <node id="Custom33" x="-438.813474" y="-163.369669"/>
</nodes>
