<?xml version='1.0' encoding='UTF-8'?>
<edges>
  <edge id="-2210" from="-1302" to="-1270" numLanes="1" width="3.5" shape="-461.401204,-316.849130 -433.356950,-319.267809 -395.196172,-332.490413 -348.369276,-360.192099 -316.731659,-357.163551 -297.343694,-341.072017 "/>
  <edge id="--2210" to="-1302" from="-1270" numLanes="1" width="3.5" shape="-297.343694,-341.072017 -316.731659,-357.163551 -348.369276,-360.192099 -395.196172,-332.490413 -433.356950,-319.267809 -461.401204,-316.849130 "/>
  <edge id="-2208" from="-1312" to="-1292" numLanes="1" width="3.5" shape="-602.270330,-228.766753 -607.344183,-223.290156 -617.215289,-209.322544 -623.513054,-195.571413 -626.659595,-178.558627 -627.772148,-169.012104 -627.894494,-156.413221 -627.568812,-147.880884 -624.991757,-137.803235 -618.231739,-128.967319 -603.143634,-117.441106 -585.028143,-109.017085 -562.445365,-102.197921 -506.730345,-88.213089 -467.292314,-80.640395 "/>
  <edge id="--2208" to="-1312" from="-1292" numLanes="1" width="3.5" shape="-467.292314,-80.640395 -506.730345,-88.213089 -562.445365,-102.197921 -585.028143,-109.017085 -603.143634,-117.441106 -618.231739,-128.967319 -624.991757,-137.803235 -627.568812,-147.880884 -627.894494,-156.413221 -627.772148,-169.012104 -626.659595,-178.558627 -623.513054,-195.571413 -617.215289,-209.322544 -607.344183,-223.290156 -602.270330,-228.766753 "/>
  <edge id="-2206" from="-1292" to="-720" numLanes="1" width="3.5" shape="-463.016507,-75.876384 -461.551613,-58.024610 -451.878815,-34.124937 -436.837117,-12.523243 -420.640456,0.492793 -406.401725,9.819464 -391.232158,16.749171 -372.146293,22.511812 -322.203075,39.666759 -248.352882,53.828767 -182.205757,63.115275 -127.689233,68.727478 -93.610669,70.857336 -71.156727,69.504424 -49.536201,64.059675 -29.751819,52.927488 -19.253534,42.661907 -11.736087,26.852916 -4.944391,-7.182105 "/>
  <edge id="--2206" to="-1292" from="-720" numLanes="1" width="3.5" shape="-4.944391,-7.182105 -11.736087,26.852916 -19.253534,42.661907 -29.751819,52.927488 -49.536201,64.059675 -71.156727,69.504424 -93.610669,70.857336 -127.689233,68.727478 -182.205757,63.115275 -248.352882,53.828767 -322.203075,39.666759 -372.146293,22.511812 -391.232158,16.749171 -406.401725,9.819464 -420.640456,0.492793 -436.837117,-12.523243 -451.878815,-34.124937 -461.551613,-58.024610 -463.016507,-75.876384 "/>
  <edge id="-2094" from="-1320" to="Custom27" numLanes="1" width="3.5" shape="-505.161123,-186.962590 -503.095761,-195.663045 -502.092317,-202.381791 -502.468222,-212.810811 -503.885803,-222.221689 -506.892360,-231.733821 -509.319376,-238.419996 -514.028589,-248.932824 -542.278045,-301.601728 "/>
  <edge id="--2094" to="-1320" from="Custom27" numLanes="1" width="3.5" shape="-542.278045,-301.601728 -514.028589,-248.932824 -509.319376,-238.419996 -506.892360,-231.733821 -503.885803,-222.221689 -502.468222,-212.810811 -502.092317,-202.381791 -503.095761,-195.663045 -505.161123,-186.962590 "/>
  <edge id="-2092" from="-1260" to="-1292" numLanes="1" width="3.5" shape="-314.054288,-231.906122 -312.809030,-189.035845 -314.855805,-145.670833 -338.461831,-115.541594 -396.408770,-97.710648 -459.460845,-80.917085 "/>
  <edge id="--2092" to="-1260" from="-1292" numLanes="1" width="3.5" shape="-459.460845,-80.917085 -396.408770,-97.710648 -338.461831,-115.541594 -314.855805,-145.670833 -312.809030,-189.035845 -314.054288,-231.906122 "/>
  <edge id="-2090" from="-1272" to="Custom28" numLanes="2" width="3.5" shape="-98.275540,-341.014862 -95.601737,-362.201902 -85.525220,-398.670140 -48.747452,-416.418190 -10.536227,-422.698919 34.031321,-421.779261 63.756290,-392.789438 82.707509,-331.861661 77.491974,-274.081538 76.359818,-263.763632 71.979335,-223.842086 67.675039,-195.293520 67.642207,-194.981339 67.637477,-194.667473 68.693804,-159.217742 68.721763,-158.868428 68.784514,-158.523662 68.881425,-158.186898 69.011526,-157.861513 85.830764,-121.231399 85.963794,-120.970957 86.118103,-120.722530 86.292613,-120.487852 118.948139,-80.204064 119.132370,-79.994464 119.332713,-79.800206 141.942434,-59.562344 142.159366,-59.383336 142.389970,-59.222324 180.927826,-34.556663 181.210940,-34.393566 181.508029,-34.257581 181.816504,-34.149892 252.231150,-13.199987 252.431125,-13.146870 352.459143,10.279952 352.767176,10.337683 353.079138,10.367629 475.768655,16.619522 634.931474,25.089591 744.378601,31.739372 "/>
  <edge id="-2058" from="-1198" to="-798" numLanes="1" width="3.5" shape="-467.128210,-259.689141 -470.193453,-254.801166 -471.117885,-249.635644 -469.858693,-243.248072 -466.544940,-238.522516 -463.955619,-235.811111 -462.644944,-233.208211 -462.083910,-228.010142 -462.184995,-221.708318 -462.222044,-204.747122 -465.832057,-186.855639 -467.658326,-177.009288 -470.008601,-170.457280 "/>
  <edge id="--2058" to="-1198" from="-798" numLanes="1" width="3.5" shape="-470.008601,-170.457280 -467.658326,-177.009288 -465.832057,-186.855639 -462.222044,-204.747122 -462.184995,-221.708318 -462.083910,-228.010142 -462.644944,-233.208211 -463.955619,-235.811111 -466.544940,-238.522516 -469.858693,-243.248072 -471.117885,-249.635644 -470.193453,-254.801166 -467.128210,-259.689141 "/>
  <edge id="-2056" from="Custom29" to="-792" numLanes="1" width="3.5" shape="-568.951448,-271.589133 -555.784083,-253.416683 -548.578755,-240.842125 -540.271849,-226.031337 -538.874460,-213.902046 -538.729981,-202.147897 -539.326038,-200.455439 "/>
  <edge id="--2056" to="Custom29" from="-792" numLanes="1" width="3.5" shape="-539.326038,-200.455439 -538.729981,-202.147897 -538.874460,-213.902046 -540.271849,-226.031337 -548.578755,-240.842125 -555.784083,-253.416683 -568.951448,-271.589133 "/>
  <edge id="-2054" from="-798" to="Custom30" numLanes="1" width="3.5" shape="-471.705113,-159.661780 -471.980603,-153.967729 -478.849318,-111.792101 "/>
  <edge id="--2054" to="-798" from="Custom30" numLanes="1" width="3.5" shape="-478.849318,-111.792101 -471.980603,-153.967729 -471.705113,-159.661780 "/>
  <edge id="-2052" from="-792" to="-462" numLanes="1" width="3.5" shape="-543.590074,-190.309371 -548.587714,-181.192179 -553.053613,-171.363115 -559.115047,-159.526623 -560.292328,-142.851947 -562.380142,-121.667475 -566.709962,-109.868706 "/>
  <edge id="--2052" to="-792" from="-462" numLanes="1" width="3.5" shape="-566.709962,-109.868706 -562.380142,-121.667475 -560.292328,-142.851947 -559.115047,-159.526623 -553.053613,-171.363115 -548.587714,-181.192179 -543.590074,-190.309371 "/>
  <edge id="-2050" from="-708" to="-738" numLanes="1" width="3.5" shape="-11.590181,-31.115910 -34.863326,-45.778035 -55.684404,-52.013642 -97.828602,-60.432795 -122.766712,-66.997441 -150.024940,-76.880369 -186.206035,-103.228645 -198.880443,-115.394354 -211.011612,-130.740859 -213.354515,-154.584593 -213.436394,-176.884566 -202.701012,-204.842810 -196.156008,-221.628092 "/>
  <edge id="--2050" to="-708" from="-738" numLanes="1" width="3.5" shape="-196.156008,-221.628092 -202.701012,-204.842810 -213.436394,-176.884566 -213.354515,-154.584593 -211.011612,-130.740859 -198.880443,-115.394354 -186.206035,-103.228645 -150.024940,-76.880369 -122.766712,-66.997441 -97.828602,-60.432795 -55.684404,-52.013642 -34.863326,-45.778035 -11.590181,-31.115910 "/>
  <edge id="-2046" from="-726" to="-1256" numLanes="1" width="3.5" shape="-198.430258,-241.946496 -201.414910,-244.265548 -228.511295,-247.729311 -262.268461,-249.775195 -300.554711,-246.625791 "/>
  <edge id="--2046" to="-726" from="-1256" numLanes="1" width="3.5" shape="-300.554711,-246.625791 -262.268461,-249.775195 -228.511295,-247.729311 -201.414910,-244.265548 -198.430258,-241.946496 "/>
  <edge id="-2018" from="-1186" to="-1302" numLanes="1" width="3.5" shape="-588.482798,-499.049958 -598.694599,-490.887767 -605.207105,-473.363943 -610.287311,-463.309709 -617.700814,-448.234565 -628.619902,-439.656091 -633.675378,-428.777441 -631.139116,-413.174780 -624.300514,-405.952674 -610.567354,-403.475282 -592.748110,-402.770424 -581.397603,-396.920987 -568.646261,-385.749752 -554.981612,-371.717698 -540.273599,-364.318256 -528.287861,-351.061181 -522.418958,-334.733156 -515.531285,-325.862163 -510.285449,-316.529513 -501.416393,-310.605854 -486.115619,-311.063191 -478.393986,-315.832405 -472.415947,-316.141412 "/>
  <edge id="--2018" to="-1186" from="-1302" numLanes="1" width="3.5" shape="-472.415947,-316.141412 -478.393986,-315.832405 -486.115619,-311.063191 -501.416393,-310.605854 -510.285449,-316.529513 -515.531285,-325.862163 -522.418958,-334.733156 -528.287861,-351.061181 -540.273599,-364.318256 -554.981612,-371.717698 -568.646261,-385.749752 -581.397603,-396.920987 -592.748110,-402.770424 -610.567354,-403.475282 -624.300514,-405.952674 -631.139116,-413.174780 -633.675378,-428.777441 -628.619902,-439.656091 -617.700814,-448.234565 -610.287311,-463.309709 -605.207105,-473.363943 -598.694599,-490.887767 -588.482798,-499.049958 "/>
  <edge id="-2014" from="Custom31" to="-716" numLanes="2" width="3.5" shape="742.470070,51.226705 625.166209,43.041766 625.032771,43.035012 472.639227,38.235131 351.802057,27.839940 250.548824,5.485225 175.007684,-11.192767 174.574640,-11.260273 141.588764,-14.303279 141.191702,-14.317263 140.795613,-14.286155 110.499243,-10.166056 110.489047,-10.164655 99.167251,-8.591047 78.429540,-5.708729 78.278014,-5.684270 56.275501,-1.635875 29.707844,-7.560713 11.692441,-16.724924 "/>
  <edge id="-1984" from="-1272" to="-106" numLanes="1" width="3.5" shape="-101.857777,-330.455933 -99.198427,-283.091618 -106.647736,-259.518375 -118.419188,-251.873834 -121.840063,-248.922045 "/>
  <edge id="--1984" to="-1272" from="-106" numLanes="1" width="3.5" shape="-121.840063,-248.922045 -118.419188,-251.873834 -106.647736,-259.518375 -99.198427,-283.091618 -101.857777,-330.455933 "/>
  <edge id="-1982" from="-1312" to="-792" numLanes="1" width="3.5" shape="-595.942198,-229.919796 -578.018691,-220.973201 -565.190605,-209.926849 -549.548031,-198.388935 -547.737459,-197.343720 "/>
  <edge id="--1982" to="-1312" from="-792" numLanes="1" width="3.5" shape="-547.737459,-197.343720 -549.548031,-198.388935 -565.190605,-209.926849 -578.018691,-220.973201 -595.942198,-229.919796 "/>
  <edge id="-1978" from="-104" to="-732" numLanes="1" width="3.5" shape="-132.818220,-241.665820 -140.517352,-237.211278 -154.619293,-229.205428 -164.952846,-228.724573 -174.084922,-231.815821 "/>
  <edge id="--1978" to="-104" from="-732" numLanes="1" width="3.5" shape="-174.084922,-231.815821 -164.952846,-228.724573 -154.619293,-229.205428 -140.517352,-237.211278 -132.818220,-241.665820 "/>
  <edge id="-1976" from="-106" to="-104" numLanes="1" width="3.5" shape="-121.840063,-248.922045 -127.069319,-245.204331 -132.818220,-241.665820 "/>
  <edge id="--1976" to="-106" from="-104" numLanes="1" width="3.5" shape="-132.818220,-241.665820 -127.069319,-245.204331 -121.840063,-248.922045 "/>
  <edge id="-1974" from="-462" to="-460" numLanes="1" width="3.5" shape="-566.709962,-109.868706 -572.654719,-93.353959 "/>
  <edge id="--1974" to="-462" from="-460" numLanes="1" width="3.5" shape="-572.654719,-93.353959 -566.709962,-109.868706 "/>
  <edge id="-1972" from="-460" to="Custom32" numLanes="1" width="3.5" shape="-572.654719,-93.353960 -579.873650,-80.301911 -584.753337,-67.319839 -583.113017,-51.615492 -566.477098,-43.361127 -553.009258,-43.180401 -544.473449,-31.766493 "/>
  <edge id="--1972" to="-460" from="Custom32" numLanes="1" width="3.5" shape="-544.473449,-31.766493 -553.009258,-43.180401 -566.477098,-43.361127 -583.113017,-51.615492 -584.753337,-67.319839 -579.873650,-80.301911 -572.654719,-93.353960 "/>
  <edge id="-1968" from="-798" to="Custom33" numLanes="1" width="3.5" shape="-464.650992,-164.628076 -459.003685,-162.966421 -449.016548,-162.040916 -438.813474,-163.369669 "/>
  <edge id="--1968" to="-798" from="Custom33" numLanes="1" width="3.5" shape="-438.813474,-163.369669 -449.016548,-162.040916 -459.003685,-162.966421 -464.650992,-164.628076 "/>
  <edge id="-1966" from="-94" to="-1312" numLanes="1" width="3.5" shape="-696.642595,-516.884069 -703.708495,-509.406231 -707.576464,-502.700029 -711.257492,-489.746951 -712.659483,-474.800179 -702.185784,-443.299082 -658.240764,-356.169399 -629.985455,-305.322910 -613.375301,-265.045872 -601.079804,-235.427139 "/>
  <edge id="--1966" to="-94" from="-1312" numLanes="1" width="3.5" shape="-601.079804,-235.427139 -613.375301,-265.045872 -629.985455,-305.322910 -658.240764,-356.169399 -702.185784,-443.299082 -712.659483,-474.800179 -711.257492,-489.746951 -707.576464,-502.700029 -703.708495,-509.406231 -696.642595,-516.884069 "/>
  <edge id="-2042_2" from="-1270" to="-1266" numLanes="1" width="3.5" shape="-297.533273,-332.345279 -309.556569,-323.220589 -317.719700,-302.554991 -318.401930,-286.197191 -315.417118,-259.867992 "/>
  <edge id="--2042_2" to="-1270" from="-1266" numLanes="1" width="3.5" shape="-315.417118,-259.867992 -318.401930,-286.197191 -317.719700,-302.554991 -309.556569,-323.220589 -297.533273,-332.345279 "/>
  <edge id="-1970_1" from="-792" to="-1320" numLanes="1" width="3.5" shape="-537.819203,-192.640756 -530.171132,-190.263179 -509.940178,-184.204602 "/>
  <edge id="--1970_1" to="-792" from="-1320" numLanes="1" width="3.5" shape="-509.940178,-184.204602 -530.171132,-190.263179 -537.819203,-192.640756 "/>
  <edge id="-1970_2" from="-1320" to="-798" numLanes="1" width="3.5" shape="-502.533412,-181.178585 -485.399044,-172.154663 -475.110381,-168.136080 "/>
  <edge id="--1970_2" to="-1320" from="-798" numLanes="1" width="3.5" shape="-475.110381,-168.136080 -485.399044,-172.154663 -502.533412,-181.178585 "/>
  <edge id="-2088_1" from="-1258" to="-1260" numLanes="2" width="3.5" shape="-322.569660,-235.278853 -319.150280,-234.023397 "/>
  <edge id="-2042_1" from="-712" to="-1272" numLanes="1" width="3.5" shape="9.100160,-32.045854 36.030764,-53.601245 53.879748,-92.293412 65.920581,-131.249534 88.687584,-152.932553 122.293937,-164.436107 142.965104,-177.888068 181.412932,-223.376617 168.536063,-262.669141 93.271638,-282.339949 65.903597,-295.085217 7.303865,-316.919595 -81.345768,-330.484567 -95.593117,-335.241734 "/>
  <edge id="--2042_1" to="-712" from="-1272" numLanes="1" width="3.5" shape="-95.593117,-335.241734 -81.345768,-330.484567 7.303865,-316.919595 65.903597,-295.085217 93.271638,-282.339949 168.536063,-262.669141 181.412932,-223.376617 142.965104,-177.888068 122.293937,-164.436107 88.687584,-152.932553 65.920581,-131.249534 53.879748,-92.293412 36.030764,-53.601245 9.100160,-32.045854 "/>
  <edge id="-2042_3" from="-1272" to="-1270" numLanes="1" width="3.5" shape="-106.190859,-338.265100 -162.841157,-349.771975 -200.050698,-360.914888 -256.420604,-366.817808 -277.091630,-353.364058 -289.277430,-339.598550 "/>
  <edge id="--2042_3" to="-1272" from="-1270" numLanes="1" width="3.5" shape="-289.277430,-339.598550 -277.091630,-353.364058 -256.420604,-366.817808 -200.050698,-360.914888 -162.841157,-349.771975 -106.190859,-338.265100 "/>
  <edge id="-2088_3" from="-1254" to="-1258" numLanes="2" width="3.5" shape="-326.062213,-240.383194 -324.539499,-237.094010 "/>
  <edge id="-2086_1" from="-1254" to="-1198" numLanes="1" width="3.5" shape="-328.506607,-244.665838 -329.330421,-244.490715 -344.605345,-242.887042 -367.495350,-242.164825 -393.022212,-240.156565 -407.609596,-239.907282 -421.882005,-241.797537 -434.297836,-245.515067 -445.940223,-249.915126 -456.246806,-256.374776 -461.821915,-260.915380 "/>
  <edge id="--2086_1" to="-1254" from="-1198" numLanes="1" width="3.5" shape="-461.821915,-260.915380 -456.246806,-256.374776 -445.940223,-249.915126 -434.297836,-245.515067 -421.882005,-241.797537 -407.609596,-239.907282 -393.022212,-240.156565 -367.495350,-242.164825 -344.605345,-242.887042 -329.330421,-244.490715 -328.506607,-244.665838 "/>
  <edge id="-2086_2" from="-1198" to="-1302" numLanes="1" width="3.5" shape="-466.358581,-267.146060 -470.009914,-275.002022 -471.454859,-284.546767 -470.806082,-297.144084 -467.650450,-306.231645 -466.848321,-309.636435 "/>
  <edge id="--2086_2" to="-1198" from="-1302" numLanes="1" width="3.5" shape="-466.848321,-309.636435 -467.650450,-306.231645 -470.806082,-297.144084 -471.454859,-284.546767 -470.009914,-275.002022 -466.358581,-267.146060 "/>
  <edge id="-2044_2" from="-708" to="-720" numLanes="2" width="3.5" shape="-12.866144,-26.416530 -14.122860,-23.017492 -14.222009,-22.705063 -14.291495,-22.384730 -14.330710,-22.059301 -14.339309,-21.731631 -14.317217,-21.404593 -14.264627,-21.081056 -14.182001,-20.763857 -14.070064,-20.455780 -13.929797,-20.159524 -13.762431,-19.877691 -10.807232,-15.393813 "/>
  <edge id="-2048_1" from="-738" to="-732" numLanes="2" width="3.5" shape="-192.128407,-220.702116 -188.709782,-219.446857 -188.382891,-219.344679 -188.047578,-219.274940 -187.707055,-219.238306 -187.364582,-219.235130 -187.023438,-219.265441 -186.686889,-219.328949 -186.358159,-219.425046 -186.040395,-219.552812 -179.080371,-222.755304 -178.775749,-222.914023 -178.488151,-223.101837 -178.220349,-223.316938 -177.974921,-223.557253 -177.754231,-223.820469 -177.560404,-224.104049 -177.395309,-224.405263 -177.260534,-224.721210 -176.003744,-228.120717 "/>
  <edge id="-2048_2" from="-732" to="-726" numLanes="2" width="3.5" shape="-176.405250,-238.223158 -177.927880,-241.512363 -178.087279,-241.816587 -178.275729,-242.103723 -178.491414,-242.371006 -178.732258,-242.615862 -178.995940,-242.835935 -179.279923,-243.029104 -179.581471,-243.193509 -179.897680,-243.327568 -187.089975,-245.968462 -187.416867,-246.070640 -187.752181,-246.140380 -188.092705,-246.177014 -188.435179,-246.180190 -188.776324,-246.149879 -189.112874,-246.086370 -189.441605,-245.990273 -189.759370,-245.862506 -193.067456,-244.340363 "/>
  <edge id="-2048_3" from="-726" to="-738" numLanes="2" width="3.5" shape="-199.933209,-236.923504 -201.189923,-233.524171 -201.293324,-233.195596 -201.363925,-232.858448 -201.401044,-232.515993 -201.404320,-232.171547 -201.373722,-231.828448 -201.309546,-231.490018 -201.212413,-231.159536 -201.083266,-230.840201 -199.560631,-227.551008 "/>
  <edge id="-2088_2" from="-1260" to="-1256" numLanes="2" width="3.5" shape="-309.055998,-234.424563 -305.747938,-235.946772 -305.443318,-236.105498 -305.155725,-236.293318 -304.887926,-236.508424 -304.642503,-236.748745 -304.421818,-237.011965 -304.227998,-237.295550 -304.062909,-237.596767 -303.928140,-237.912717 -302.671206,-241.312833 "/>
  <edge id="-1980_1" from="-94" to="-1186" numLanes="1" width="3.5" shape="-696.642595,-516.884069 -691.348878,-521.267124 -681.706957,-527.639125 -665.324248,-532.150847 -641.493066,-529.577599 -611.388597,-517.466297 -589.292355,-506.543716 "/>
  <edge id="--1980_1" to="-94" from="-1186" numLanes="1" width="3.5" shape="-589.292355,-506.543716 -611.388597,-517.466297 -641.493066,-529.577599 -665.324248,-532.150847 -681.706957,-527.639125 -691.348878,-521.267124 -696.642595,-516.884069 "/>
  <edge id="-1980_2" from="-1186" to="-1302" numLanes="1" width="3.5" shape="-579.348307,-501.752105 -563.334537,-494.379722 -542.497780,-480.136868 -521.184054,-464.491044 -501.195678,-446.382416 -492.289170,-433.146298 -484.580342,-419.874402 -480.451473,-407.203189 -475.170259,-381.594813 -472.169016,-359.498138 -467.203066,-323.282148 "/>
  <edge id="--1980_2" to="-1186" from="-1302" numLanes="1" width="3.5" shape="-467.203066,-323.282148 -472.169016,-359.498138 -475.170259,-381.594813 -480.451473,-407.203189 -484.580342,-419.874402 -492.289170,-433.146298 -501.195678,-446.382416 -521.184054,-464.491044 -542.497780,-480.136868 -563.334537,-494.379722 -579.348307,-501.752105 "/>
  <edge id="-2044_1" from="-720" to="-716" numLanes="2" width="3.5" shape="2.391774,-9.674477 4.333793,-10.567984 "/>
  <edge id="-2088_4" from="-1256" to="-1266" numLanes="2" width="3.5" shape="-303.073128,-251.414706 -304.595837,-254.703902 -304.755243,-255.008122 -304.943699,-255.295254 -305.159389,-255.562533 -305.400238,-255.807384 -305.663925,-256.027451 -305.947911,-256.220614 -306.249462,-256.385013 -306.565675,-256.519065 -309.984368,-257.774274 "/>
  <edge id="-2088_5" from="-1266" to="-1254" numLanes="2" width="3.5" shape="-320.079360,-257.373368 -323.387438,-255.851146 -323.692058,-255.692420 -323.979652,-255.504599 -324.247450,-255.289492 -324.492874,-255.049170 -324.713558,-254.785949 -324.907378,-254.502363 -325.072467,-254.201145 -325.207235,-253.885194 -326.464287,-250.484730 "/>
  <edge id="-2044_3" from="-716" to="-712" numLanes="2" width="3.5" shape="11.199725,-17.984607 12.456448,-21.383632 12.559859,-21.712204 12.630472,-22.049350 12.667601,-22.391805 12.670888,-22.736250 12.640301,-23.079351 12.576135,-23.417783 12.479013,-23.748268 12.349876,-24.067607 10.827267,-27.357015 "/>
  <edge id="-2044_4" from="-712" to="-708" numLanes="2" width="3.5" shape="3.395443,-34.205728 -0.022902,-35.461001 -0.349791,-35.563189 -0.685103,-35.632938 -1.025626,-35.669582 -1.368100,-35.672768 -1.709246,-35.642467 -2.045797,-35.578968 -2.374531,-35.482880 -2.692299,-35.355123 -6.001236,-33.832705 "/>
</edges>
