<?xml version="1.0" encoding="UTF-8"?>

<!-- generated on Fri Nov  5 14:40:55 2021 by SUMO netconvert Version 0.30.0
-->

<net version="0.27" xmlns:xsi="http://www.w3.org/2001/XMLSchema-instance" xsi:noNamespaceSchemaLocation="http://sumo.dlr.de/xsd/net_file.xsd">

    <location netOffset="70.86,712.66" convBoundary="0.00,0.00,603.01,1457.25" origBoundary="-70.86,-712.66,532.15,744.59" projParameter="!"/>

    <edge id=":-104_0" function="internal">
        <lane id=":-104_0_0" index="0" speed="13.90" length="0.31" width="3.50" shape="311.06,580.90 310.90,580.63"/>
    </edge>
    <edge id=":-104_1" function="internal">
        <lane id=":-104_1_0" index="0" speed="13.90" length="2.63" width="3.50" shape="311.06,580.90 311.12,579.28 311.65,578.42"/>
    </edge>
    <edge id=":-104_4" function="internal">
        <lane id=":-104_4_0" index="0" speed="13.90" length="2.63" width="3.50" shape="311.65,578.42 312.65,578.33 314.12,579.01"/>
    </edge>
    <edge id=":-104_2" function="internal">
        <lane id=":-104_2_0" index="0" speed="13.90" length="0.21" width="3.50" shape="314.02,578.83 314.12,579.01"/>
    </edge>
    <edge id=":-104_3" function="internal">
        <lane id=":-104_3_0" index="0" speed="13.90" length="2.63" width="3.50" shape="314.02,578.83 313.91,580.45 313.36,581.29"/>
    </edge>
    <edge id=":-104_5" function="internal">
        <lane id=":-104_5_0" index="0" speed="13.90" length="2.63" width="3.50" shape="313.36,581.29 312.35,581.35 310.90,580.63"/>
    </edge>
    <edge id=":-106_0" function="internal">
        <lane id=":-106_0_0" index="0" speed="13.90" length="0.42" width="3.50" shape="318.49,592.08 318.23,591.75"/>
    </edge>
    <edge id=":-106_1" function="internal">
        <lane id=":-106_1_0" index="0" speed="13.90" length="2.63" width="3.50" shape="318.49,592.08 318.31,590.47 318.71,589.54"/>
    </edge>
    <edge id=":-106_4" function="internal">
        <lane id=":-106_4_0" index="0" speed="13.90" length="2.63" width="3.50" shape="318.71,589.54 319.69,589.31 321.25,589.77"/>
    </edge>
    <edge id=":-106_2" function="internal">
        <lane id=":-106_2_0" index="0" speed="13.90" length="0.14" width="3.50" shape="321.17,589.66 321.25,589.77"/>
    </edge>
    <edge id=":-106_3" function="internal">
        <lane id=":-106_3_0" index="0" speed="13.90" length="2.63" width="3.50" shape="321.17,589.66 321.22,591.29 320.74,592.17"/>
    </edge>
    <edge id=":-106_5" function="internal">
        <lane id=":-106_5_0" index="0" speed="13.90" length="2.63" width="3.50" shape="320.74,592.17 319.75,592.33 318.23,591.75"/>
    </edge>
    <edge id=":-1186_0" function="internal">
        <lane id=":-1186_0_0" index="0" speed="13.90" length="10.99" width="3.50" shape="579.01,124.16 574.24,134.06"/>
    </edge>
    <edge id=":-1186_1" function="internal">
        <lane id=":-1186_1_0" index="0" speed="13.90" length="6.06" width="3.50" shape="579.01,124.16 576.78,127.44 574.92,128.40"/>
    </edge>
    <edge id=":-1186_2" function="internal">
        <lane id=":-1186_2_0" index="0" speed="13.90" length="2.63" width="3.50" shape="579.01,124.16 577.61,124.98 576.60,124.98"/>
    </edge>
    <edge id=":-1186_9" function="internal">
        <lane id=":-1186_9_0" index="0" speed="13.90" length="7.58" width="3.50" shape="574.92,128.40 574.28,128.73 571.54,128.03 568.54,125.34"/>
    </edge>
    <edge id=":-1186_10" function="internal">
        <lane id=":-1186_10_0" index="0" speed="13.90" length="2.63" width="3.50" shape="576.60,124.98 576.00,124.18 575.79,122.57"/>
    </edge>
    <edge id=":-1186_3" function="internal">
        <lane id=":-1186_3_0" index="0" speed="13.90" length="5.82" width="3.50" shape="571.31,123.05 572.60,124.20 573.77,124.51 574.83,123.96 575.79,122.57"/>
    </edge>
    <edge id=":-1186_4" function="internal">
        <lane id=":-1186_4_0" index="0" speed="13.90" length="12.04" width="3.50" shape="571.31,123.05 573.44,126.03 574.64,128.86 574.91,131.53 574.24,134.06"/>
    </edge>
    <edge id=":-1186_5" function="internal">
        <lane id=":-1186_5_0" index="0" speed="13.90" length="5.26" width="3.50" shape="571.31,123.05 571.48,124.67 571.07,125.59 570.09,125.81 568.54,125.34"/>
    </edge>
    <edge id=":-1186_6" function="internal">
        <lane id=":-1186_6_0" index="0" speed="13.90" length="8.00" width="3.50" shape="570.97,132.56 571.31,131.05 571.01,129.34 570.09,127.44 568.54,125.34"/>
    </edge>
    <edge id=":-1186_7" function="internal">
        <lane id=":-1186_7_0" index="0" speed="13.90" length="11.09" width="3.50" shape="570.97,132.56 575.79,122.57"/>
    </edge>
    <edge id=":-1186_8" function="internal">
        <lane id=":-1186_8_0" index="0" speed="13.90" length="2.63" width="3.50" shape="570.97,132.56 572.36,131.71 573.36,131.68"/>
    </edge>
    <edge id=":-1186_11" function="internal">
        <lane id=":-1186_11_0" index="0" speed="13.90" length="2.63" width="3.50" shape="573.36,131.68 573.99,132.46 574.24,134.06"/>
    </edge>
    <edge id=":-1198_0" function="internal">
        <lane id=":-1198_0_0" index="0" speed="13.90" length="6.94" width="3.50" shape="338.76,247.93 336.89,248.79 335.63,249.47 334.55,250.38 333.21,251.92"/>
    </edge>
    <edge id=":-1198_1" function="internal">
        <lane id=":-1198_1_0" index="0" speed="13.90" length="5.18" width="3.50" shape="338.76,247.93 336.52,248.66 334.25,248.76 333.72,248.64"/>
    </edge>
    <edge id=":-1198_2" function="internal">
        <lane id=":-1198_2_0" index="0" speed="13.90" length="2.63" width="3.50" shape="338.76,247.93 337.16,247.69 336.37,247.06"/>
    </edge>
    <edge id=":-1198_9" function="internal">
        <lane id=":-1198_9_0" index="0" speed="13.90" length="4.39" width="3.50" shape="333.72,248.64 331.96,248.24 329.64,247.09"/>
    </edge>
    <edge id=":-1198_10" function="internal">
        <lane id=":-1198_10_0" index="0" speed="13.90" length="2.63" width="3.50" shape="336.37,247.06 336.40,246.05 337.24,244.67"/>
    </edge>
    <edge id=":-1198_3" function="internal">
        <lane id=":-1198_3_0" index="0" speed="13.90" length="6.03" width="3.50" shape="331.50,244.01 333.01,244.77 334.46,245.13 335.88,245.10 337.24,244.67"/>
    </edge>
    <edge id=":-1198_4" function="internal">
        <lane id=":-1198_4_0" index="0" speed="13.90" length="9.51" width="3.50" shape="331.50,244.01 333.63,245.77 334.63,247.68 334.49,249.73 333.21,251.92"/>
    </edge>
    <edge id=":-1198_5" function="internal">
        <lane id=":-1198_5_0" index="0" speed="13.90" length="5.26" width="3.50" shape="331.50,244.01 332.19,245.48 332.11,246.48 331.26,247.02 329.64,247.09"/>
    </edge>
    <edge id=":-1198_6" function="internal">
        <lane id=":-1198_6_0" index="0" speed="13.90" length="3.18" width="3.50" shape="330.38,249.70 330.77,249.00 330.77,248.34 330.40,247.70 329.64,247.09"/>
    </edge>
    <edge id=":-1198_7" function="internal">
        <lane id=":-1198_7_0" index="0" speed="13.90" length="8.65" width="3.50" shape="330.38,249.70 332.04,247.77 333.37,246.62 334.92,245.75 337.24,244.67"/>
    </edge>
    <edge id=":-1198_8" function="internal">
        <lane id=":-1198_8_0" index="0" speed="13.90" length="2.78" width="3.50" shape="330.38,249.70 331.92,249.19 332.90,249.40 332.97,249.54"/>
    </edge>
    <edge id=":-1198_11" function="internal">
        <lane id=":-1198_11_0" index="0" speed="13.90" length="2.47" width="3.50" shape="332.97,249.54 333.34,250.31 333.21,251.92"/>
    </edge>
    <edge id=":-1254_0" function="internal">
        <lane id=":-1254_0_0" index="0" speed="13.90" length="7.60" width="3.50" shape="319.47,391.26 317.74,390.69 316.45,390.52 315.19,390.79 313.51,391.50"/>
        <lane id=":-1254_0_1" index="1" speed="13.90" length="7.60" width="3.50" shape="320.72,387.88 318.51,387.29 316.32,387.15 314.15,387.46 312.00,388.23"/>
    </edge>
    <edge id=":-1254_2" function="internal">
        <lane id=":-1254_2_0" index="0" speed="13.90" length="7.78" width="3.50" shape="320.72,387.88 319.26,387.35 316.97,386.44 314.81,385.42 313.76,384.53"/>
    </edge>
    <edge id=":-1254_3" function="internal">
        <lane id=":-1254_3_0" index="0" speed="13.90" length="7.23" width="3.50" shape="317.28,383.78 317.11,384.74 316.17,385.80 314.46,386.96 312.00,388.23"/>
    </edge>
    <edge id=":-1254_4" function="internal">
        <lane id=":-1254_4_0" index="0" speed="13.90" length="5.26" width="3.50" shape="317.28,383.78 316.68,385.29 315.90,385.91 314.92,385.66 313.76,384.53"/>
    </edge>
    <edge id=":-1256_0" function="internal">
        <lane id=":-1256_0_0" index="0" speed="13.90" length="7.45" width="3.50" shape="315.69,412.25 316.01,411.40 317.08,410.41 318.92,409.26 321.52,407.95"/>
    </edge>
    <edge id=":-1256_1" function="internal">
        <lane id=":-1256_1_0" index="0" speed="13.90" length="5.26" width="3.50" shape="315.69,412.25 316.48,410.83 317.34,410.31 318.27,410.69 319.28,411.96"/>
    </edge>
    <edge id=":-1256_2" function="internal">
        <lane id=":-1256_2_0" index="0" speed="13.90" length="7.60" width="3.50" shape="314.04,404.92 315.77,405.50 317.06,405.66 318.32,405.40 320.00,404.69"/>
        <lane id=":-1256_2_1" index="1" speed="13.90" length="7.60" width="3.50" shape="312.79,408.30 315.00,408.89 317.19,409.03 319.36,408.72 321.52,407.95"/>
    </edge>
    <edge id=":-1256_4" function="internal">
        <lane id=":-1256_4_0" index="0" speed="13.90" length="7.58" width="3.50" shape="312.79,408.30 315.59,409.41 317.60,410.39 318.83,411.24 319.28,411.96"/>
    </edge>
    <edge id=":-1258_0" function="internal">
        <lane id=":-1258_0_0" index="0" speed="13.90" length="2.84" width="3.50" shape="311.59,392.39 311.23,392.57 311.00,392.75 310.84,392.99 310.68,393.37"/>
        <lane id=":-1258_0_1" index="1" speed="13.90" length="2.84" width="3.50" shape="310.08,389.12 308.96,389.68 308.26,390.23 307.77,390.97 307.30,392.13"/>
    </edge>
    <edge id=":-1260_0" function="internal">
        <lane id=":-1260_0_0" index="0" speed="13.90" length="7.68" width="3.50" shape="309.95,395.37 309.38,397.11 309.21,398.39 309.48,399.66 310.19,401.35"/>
        <lane id=":-1260_0_1" index="1" speed="13.90" length="7.68" width="3.50" shape="306.57,394.13 305.73,396.66 305.50,398.54 305.88,400.39 306.92,402.85"/>
    </edge>
    <edge id=":-1260_2" function="internal">
        <lane id=":-1260_2_0" index="0" speed="13.90" length="7.49" width="3.50" shape="306.57,394.13 305.48,396.86 304.49,398.82 303.60,400.00 302.82,400.40"/>
    </edge>
    <edge id=":-1260_3" function="internal">
        <lane id=":-1260_3_0" index="0" speed="13.90" length="7.53" width="3.50" shape="302.72,396.81 303.51,397.17 304.47,398.30 305.61,400.19 306.92,402.85"/>
    </edge>
    <edge id=":-1260_4" function="internal">
        <lane id=":-1260_4_0" index="0" speed="13.90" length="5.26" width="3.50" shape="302.72,396.81 304.09,397.67 304.57,398.56 304.14,399.47 302.82,400.40"/>
    </edge>
    <edge id=":-1266_0" function="internal">
        <lane id=":-1266_0_0" index="0" speed="13.90" length="7.39" width="3.50" shape="330.93,399.03 330.05,398.74 329.03,397.70 327.88,395.89 326.60,393.33"/>
    </edge>
    <edge id=":-1266_1" function="internal">
        <lane id=":-1266_1_0" index="0" speed="13.90" length="5.26" width="3.50" shape="330.93,399.03 329.49,398.29 328.94,397.45 329.28,396.50 330.52,395.45"/>
    </edge>
    <edge id=":-1266_2" function="internal">
        <lane id=":-1266_2_0" index="0" speed="13.90" length="7.69" width="3.50" shape="323.56,400.81 324.14,399.08 324.30,397.79 324.03,396.52 323.33,394.84"/>
        <lane id=":-1266_2_1" index="1" speed="13.90" length="7.69" width="3.50" shape="326.94,402.05 327.78,399.52 328.02,397.64 327.63,395.79 326.60,393.33"/>
    </edge>
    <edge id=":-1266_4" function="internal">
        <lane id=":-1266_4_0" index="0" speed="13.90" length="7.63" width="3.50" shape="326.94,402.05 328.06,399.22 329.02,397.17 329.85,395.92 330.52,395.45"/>
    </edge>
    <edge id=":-1270_0" function="internal">
        <lane id=":-1270_0_0" index="0" speed="13.90" length="11.37" width="3.50" shape="409.26,424.73 406.94,422.56 405.25,420.72 403.69,418.76 401.77,416.21"/>
    </edge>
    <edge id=":-1270_1" function="internal">
        <lane id=":-1270_1_0" index="0" speed="13.90" length="4.71" width="3.50" shape="409.26,424.73 407.80,422.70 407.54,420.51"/>
    </edge>
    <edge id=":-1270_2" function="internal">
        <lane id=":-1270_2_0" index="0" speed="13.90" length="2.73" width="3.50" shape="409.26,424.73 408.85,423.16 409.11,422.19 409.20,422.15"/>
    </edge>
    <edge id=":-1270_9" function="internal">
        <lane id=":-1270_9_0" index="0" speed="13.90" length="7.06" width="3.50" shape="407.54,420.51 407.51,420.27 408.42,417.44 410.51,414.21"/>
    </edge>
    <edge id=":-1270_10" function="internal">
        <lane id=":-1270_10_0" index="0" speed="13.90" length="2.53" width="3.50" shape="409.20,422.15 410.04,421.81 411.65,422.03"/>
    </edge>
    <edge id=":-1270_3" function="internal">
        <lane id=":-1270_3_0" index="0" speed="13.90" length="6.27" width="3.50" shape="413.32,416.47 411.99,418.38 411.27,419.94 411.16,421.16 411.65,422.03"/>
    </edge>
    <edge id=":-1270_4" function="internal">
        <lane id=":-1270_4_0" index="0" speed="13.90" length="14.13" width="3.50" shape="413.32,416.47 410.43,419.21 407.55,420.09 404.66,419.09 401.77,416.21"/>
    </edge>
    <edge id=":-1270_5" function="internal">
        <lane id=":-1270_5_0" index="0" speed="13.90" length="5.26" width="3.50" shape="413.32,416.47 411.77,416.95 410.78,416.74 410.37,415.82 410.51,414.21"/>
    </edge>
    <edge id=":-1270_6" function="internal">
        <lane id=":-1270_6_0" index="0" speed="13.90" length="7.19" width="3.50" shape="404.64,414.04 406.11,415.51 407.58,416.03 409.05,415.60 410.51,414.21"/>
    </edge>
    <edge id=":-1270_7" function="internal">
        <lane id=":-1270_7_0" index="0" speed="13.90" length="10.67" width="3.50" shape="404.64,414.04 406.48,416.50 407.87,418.29 409.40,419.95 411.65,422.03"/>
    </edge>
    <edge id=":-1270_8" function="internal">
        <lane id=":-1270_8_0" index="0" speed="13.90" length="2.63" width="3.50" shape="404.64,414.04 404.74,415.66 404.29,416.56"/>
    </edge>
    <edge id=":-1270_11" function="internal">
        <lane id=":-1270_11_0" index="0" speed="13.90" length="2.63" width="3.50" shape="404.29,416.56 403.30,416.75 401.77,416.21"/>
    </edge>
    <edge id=":-1272_0" function="internal">
        <lane id=":-1272_0_0" index="0" speed="13.90" length="3.19" width="3.50" shape="410.89,606.83 410.84,607.68 411.11,608.34 411.68,608.78 412.55,609.03"/>
    </edge>
    <edge id=":-1272_1" function="internal">
        <lane id=":-1272_1_0" index="0" speed="13.90" length="11.18" width="3.50" shape="410.89,606.83 407.83,617.58"/>
    </edge>
    <edge id=":-1272_2" function="internal">
        <lane id=":-1272_2_0" index="0" speed="13.90" length="5.39" width="3.50" shape="410.89,606.83 409.89,609.20 407.97,610.95 407.77,611.03"/>
    </edge>
    <edge id=":-1272_3" function="internal">
        <lane id=":-1272_3_0" index="0" speed="13.90" length="2.83" width="3.50" shape="410.89,606.83 409.74,607.97 408.76,608.23 408.61,608.11"/>
    </edge>
    <edge id=":-1272_12" function="internal">
        <lane id=":-1272_12_0" index="0" speed="13.90" length="6.60" width="3.50" shape="407.77,611.03 405.15,612.09 401.41,612.60"/>
    </edge>
    <edge id=":-1272_13" function="internal">
        <lane id=":-1272_13_0" index="0" speed="13.90" length="2.43" width="3.50" shape="408.61,608.11 407.97,607.61 407.36,606.11"/>
    </edge>
    <edge id=":-1272_4" function="internal">
        <lane id=":-1272_4_0" index="0" speed="13.90" length="7.23" width="3.50" shape="401.23,609.00 403.71,608.72 405.56,608.15 406.78,607.27 407.36,606.11"/>
    </edge>
    <edge id=":-1272_5" function="internal">
        <lane id=":-1272_5_0" index="0" speed="13.90" length="11.56" width="3.50" shape="401.23,609.00 404.23,609.35 406.40,610.42 408.70,611.67 412.08,612.60"/>
    </edge>
    <edge id=":-1272_6" function="internal">
        <lane id=":-1272_6_0" index="0" speed="13.90" length="13.60" width="3.50" shape="401.23,609.00 405.11,609.37 407.51,610.92 408.41,613.66 407.83,617.58"/>
    </edge>
    <edge id=":-1272_7" function="internal">
        <lane id=":-1272_7_0" index="0" speed="13.90" length="5.26" width="3.50" shape="401.23,609.00 402.62,609.83 403.12,610.71 402.72,611.63 401.41,612.60"/>
    </edge>
    <edge id=":-1272_8" function="internal">
        <lane id=":-1272_8_0" index="0" speed="13.90" length="6.16" width="3.50" shape="404.39,616.50 404.66,614.72 404.25,613.47 403.17,612.77 401.41,612.60"/>
    </edge>
    <edge id=":-1272_9" function="internal">
        <lane id=":-1272_9_0" index="0" speed="13.90" length="10.80" width="3.50" shape="404.39,616.50 407.36,606.11"/>
    </edge>
    <edge id=":-1272_10" function="internal">
        <lane id=":-1272_10_0" index="0" speed="13.90" length="4.64" width="3.50" shape="404.39,616.50 405.40,614.47 407.02,613.14 407.29,613.06"/>
    </edge>
    <edge id=":-1272_11" function="internal">
        <lane id=":-1272_11_0" index="0" speed="13.90" length="2.63" width="3.50" shape="404.39,616.50 405.65,615.48 406.65,615.32"/>
    </edge>
    <edge id=":-1272_14" function="internal">
        <lane id=":-1272_14_0" index="0" speed="13.90" length="4.87" width="3.50" shape="407.29,613.06 409.24,612.52 412.08,612.60"/>
    </edge>
    <edge id=":-1272_15" function="internal">
        <lane id=":-1272_15_0" index="0" speed="13.90" length="2.63" width="3.50" shape="406.65,615.32 407.37,616.02 407.83,617.58"/>
    </edge>
    <edge id=":-1292_0" function="internal">
        <lane id=":-1292_0_0" index="0" speed="13.90" length="4.25" width="3.50" shape="150.04,253.66 149.59,252.61 148.92,251.89 148.02,251.50 146.88,251.44"/>
    </edge>
    <edge id=":-1292_1" function="internal">
        <lane id=":-1292_1_0" index="0" speed="13.90" length="8.77" width="3.50" shape="150.04,253.66 149.40,251.15 149.16,249.37 149.28,247.58 149.73,245.03"/>
    </edge>
    <edge id=":-1292_2" function="internal">
        <lane id=":-1292_2_0" index="0" speed="13.90" length="2.63" width="3.50" shape="150.04,253.66 150.56,252.13 151.31,251.46"/>
    </edge>
    <edge id=":-1292_9" function="internal">
        <lane id=":-1292_9_0" index="0" speed="13.90" length="2.63" width="3.50" shape="151.31,251.46 152.30,251.66 153.51,252.73"/>
    </edge>
    <edge id=":-1292_3" function="internal">
        <lane id=":-1292_3_0" index="0" speed="13.90" length="7.14" width="3.50" shape="153.27,245.71 152.90,247.78 152.80,249.24 153.00,250.69 153.51,252.73"/>
    </edge>
    <edge id=":-1292_4" function="internal">
        <lane id=":-1292_4_0" index="0" speed="13.90" length="4.85" width="3.50" shape="153.27,245.71 152.49,248.05 151.16,249.78 150.99,249.89"/>
    </edge>
    <edge id=":-1292_5" function="internal">
        <lane id=":-1292_5_0" index="0" speed="13.90" length="2.63" width="3.50" shape="153.27,245.71 152.13,246.86 151.16,247.14"/>
    </edge>
    <edge id=":-1292_10" function="internal">
        <lane id=":-1292_10_0" index="0" speed="13.90" length="4.46" width="3.50" shape="150.99,249.89 149.29,250.91 146.88,251.44"/>
    </edge>
    <edge id=":-1292_11" function="internal">
        <lane id=":-1292_11_0" index="0" speed="13.90" length="2.63" width="3.50" shape="151.16,247.14 150.36,246.52 149.73,245.03"/>
    </edge>
    <edge id=":-1292_6" function="internal">
        <lane id=":-1292_6_0" index="0" speed="13.90" length="4.58" width="3.50" shape="146.59,247.85 147.77,247.59 148.69,247.04 149.35,246.18 149.73,245.03"/>
    </edge>
    <edge id=":-1292_7" function="internal">
        <lane id=":-1292_7_0" index="0" speed="13.90" length="9.33" width="3.50" shape="146.59,247.85 149.08,247.99 151.07,248.84 152.54,250.43 153.51,252.73"/>
    </edge>
    <edge id=":-1292_8" function="internal">
        <lane id=":-1292_8_0" index="0" speed="13.90" length="5.26" width="3.50" shape="146.59,247.85 148.01,248.64 148.53,249.50 148.15,250.43 146.88,251.44"/>
    </edge>
    <edge id=":-1302_0" function="internal">
        <lane id=":-1302_0_0" index="0" speed="13.90" length="7.37" width="3.50" shape="385.91,251.41 385.45,250.22 384.33,249.18 382.54,248.30 380.08,247.56"/>
    </edge>
    <edge id=":-1302_1" function="internal">
        <lane id=":-1302_1_0" index="0" speed="13.90" length="11.05" width="3.50" shape="385.91,251.41 385.20,240.39"/>
    </edge>
    <edge id=":-1302_2" function="internal">
        <lane id=":-1302_2_0" index="0" speed="13.90" length="5.38" width="3.50" shape="385.91,251.41 386.16,248.47 387.44,246.41"/>
    </edge>
    <edge id=":-1302_3" function="internal">
        <lane id=":-1302_3_0" index="0" speed="13.90" length="2.74" width="3.50" shape="385.91,251.41 386.68,249.99 387.54,249.45 387.64,249.49"/>
    </edge>
    <edge id=":-1302_16" function="internal">
        <lane id=":-1302_16_0" index="0" speed="13.90" length="7.14" width="3.50" shape="387.44,246.41 387.58,246.20 390.15,244.60 393.89,243.67"/>
    </edge>
    <edge id=":-1302_17" function="internal">
        <lane id=":-1302_17_0" index="0" speed="13.90" length="2.52" width="3.50" shape="387.64,249.49 388.48,249.82 389.50,251.08"/>
    </edge>
    <edge id=":-1302_4" function="internal">
        <lane id=":-1302_4_0" index="0" speed="13.90" length="6.91" width="3.50" shape="394.38,247.24 392.13,247.75 390.56,248.56 389.68,249.67 389.50,251.08"/>
    </edge>
    <edge id=":-1302_5" function="internal">
        <lane id=":-1302_5_0" index="0" speed="13.90" length="14.39" width="3.50" shape="394.38,247.24 390.74,247.74 387.20,248.09 383.67,248.09 380.08,247.56"/>
    </edge>
    <edge id=":-1302_6" function="internal">
        <lane id=":-1302_6_0" index="0" speed="13.90" length="13.22" width="3.50" shape="394.38,247.24 390.61,247.25 387.83,246.11 386.02,243.83 385.20,240.39"/>
    </edge>
    <edge id=":-1302_7" function="internal">
        <lane id=":-1302_7_0" index="0" speed="13.90" length="5.26" width="3.50" shape="394.38,247.24 392.92,246.53 392.36,245.70 392.68,244.75 393.89,243.67"/>
    </edge>
    <edge id=":-1302_8" function="internal">
        <lane id=":-1302_8_0" index="0" speed="13.90" length="7.15" width="3.50" shape="388.80,240.15 389.24,241.94 390.24,243.12 391.79,243.70 393.89,243.67"/>
    </edge>
    <edge id=":-1302_9" function="internal">
        <lane id=":-1302_9_0" index="0" speed="13.90" length="10.95" width="3.50" shape="388.80,240.15 389.50,251.08"/>
    </edge>
    <edge id=":-1302_10" function="internal">
        <lane id=":-1302_10_0" index="0" speed="13.90" length="6.47" width="3.50" shape="388.80,240.15 388.55,244.23 387.34,246.28"/>
    </edge>
    <edge id=":-1302_11" function="internal">
        <lane id=":-1302_11_0" index="0" speed="13.90" length="2.63" width="3.50" shape="388.80,240.15 387.99,241.56 387.12,242.07"/>
    </edge>
    <edge id=":-1302_18" function="internal">
        <lane id=":-1302_18_0" index="0" speed="13.90" length="7.80" width="3.50" shape="387.34,246.28 387.01,246.83 384.19,247.94 380.08,247.56"/>
    </edge>
    <edge id=":-1302_19" function="internal">
        <lane id=":-1302_19_0" index="0" speed="13.90" length="2.63" width="3.50" shape="387.12,242.07 386.19,241.68 385.20,240.39"/>
    </edge>
    <edge id=":-1302_12" function="internal">
        <lane id=":-1302_12_0" index="0" speed="13.90" length="7.05" width="3.50" shape="380.91,244.06 382.93,244.24 384.33,243.69 385.08,242.41 385.20,240.39"/>
    </edge>
    <edge id=":-1302_13" function="internal">
        <lane id=":-1302_13_0" index="0" speed="13.90" length="13.09" width="3.50" shape="380.91,244.06 384.29,244.58 387.37,244.55 390.46,244.18 393.89,243.67"/>
    </edge>
    <edge id=":-1302_14" function="internal">
        <lane id=":-1302_14_0" index="0" speed="13.90" length="11.84" width="3.50" shape="380.91,244.06 384.47,245.21 387.09,246.77 388.77,248.72 389.50,251.08"/>
    </edge>
    <edge id=":-1302_15" function="internal">
        <lane id=":-1302_15_0" index="0" speed="13.90" length="5.26" width="3.50" shape="380.91,244.06 382.01,245.24 382.25,246.22 381.60,247.00 380.08,247.56"/>
    </edge>
    <edge id=":-1312_0" function="internal">
        <lane id=":-1312_0_0" index="0" speed="13.90" length="6.51" width="3.50" shape="306.97,113.24 305.23,114.02 304.12,114.78 303.29,115.84 302.39,117.52"/>
    </edge>
    <edge id=":-1312_1" function="internal">
        <lane id=":-1312_1_0" index="0" speed="13.90" length="4.62" width="3.50" shape="306.97,113.24 304.65,113.89 302.44,113.85"/>
    </edge>
    <edge id=":-1312_2" function="internal">
        <lane id=":-1312_2_0" index="0" speed="13.90" length="2.63" width="3.50" shape="306.97,113.24 305.38,112.93 304.62,112.27"/>
    </edge>
    <edge id=":-1312_9" function="internal">
        <lane id=":-1312_9_0" index="0" speed="13.90" length="4.62" width="3.50" shape="302.44,113.85 300.36,113.12 298.40,111.71"/>
    </edge>
    <edge id=":-1312_10" function="internal">
        <lane id=":-1312_10_0" index="0" speed="13.90" length="2.63" width="3.50" shape="304.62,112.27 304.69,111.27 305.59,109.92"/>
    </edge>
    <edge id=":-1312_3" function="internal">
        <lane id=":-1312_3_0" index="0" speed="13.90" length="5.12" width="3.50" shape="300.85,109.07 301.93,109.85 303.08,110.25 304.31,110.28 305.59,109.92"/>
    </edge>
    <edge id=":-1312_4" function="internal">
        <lane id=":-1312_4_0" index="0" speed="13.90" length="9.30" width="3.50" shape="300.85,109.07 302.42,110.97 303.20,113.01 303.19,115.19 302.39,117.52"/>
    </edge>
    <edge id=":-1312_5" function="internal">
        <lane id=":-1312_5_0" index="0" speed="13.90" length="5.26" width="3.50" shape="300.85,109.07 301.23,110.65 300.94,111.61 300.00,111.97 298.40,111.71"/>
    </edge>
    <edge id=":-1312_6" function="internal">
        <lane id=":-1312_6_0" index="0" speed="13.90" length="4.62" width="3.50" shape="299.17,115.91 299.57,114.75 299.57,113.67 299.18,112.65 298.40,111.71"/>
    </edge>
    <edge id=":-1312_7" function="internal">
        <lane id=":-1312_7_0" index="0" speed="13.90" length="9.12" width="3.50" shape="299.17,115.91 300.43,113.55 301.59,112.07 303.15,111.01 305.59,109.92"/>
    </edge>
    <edge id=":-1312_8" function="internal">
        <lane id=":-1312_8_0" index="0" speed="13.90" length="2.74" width="3.50" shape="299.17,115.91 300.57,115.11 301.58,115.11 301.65,115.19"/>
    </edge>
    <edge id=":-1312_11" function="internal">
        <lane id=":-1312_11_0" index="0" speed="13.90" length="2.52" width="3.50" shape="301.65,115.19 302.19,115.91 302.39,117.52"/>
    </edge>
    <edge id=":-1320_0" function="internal">
        <lane id=":-1320_0_0" index="0" speed="13.90" length="4.51" width="3.50" shape="257.40,209.25 256.21,209.13 255.18,209.38 254.32,209.99 253.63,210.96"/>
    </edge>
    <edge id=":-1320_1" function="internal">
        <lane id=":-1320_1_0" index="0" speed="13.90" length="9.40" width="3.50" shape="257.40,209.25 254.99,208.30 253.50,206.80 252.95,204.77 253.34,202.20"/>
    </edge>
    <edge id=":-1320_2" function="internal">
        <lane id=":-1320_2_0" index="0" speed="13.90" length="5.26" width="3.50" shape="257.40,209.25 256.30,208.06 256.07,207.08 256.71,206.31 258.24,205.75"/>
    </edge>
    <edge id=":-1320_3" function="internal">
        <lane id=":-1320_3_0" index="0" speed="13.90" length="3.35" width="3.50" shape="256.79,203.24 256.65,204.15 256.85,204.88 257.37,205.41 258.24,205.75"/>
    </edge>
    <edge id=":-1320_4" function="internal">
        <lane id=":-1320_4_0" index="0" speed="13.90" length="8.37" width="3.50" shape="256.79,203.24 256.06,205.61 255.49,207.21 254.77,208.76 253.63,210.96"/>
    </edge>
    <edge id=":-1320_5" function="internal">
        <lane id=":-1320_5_0" index="0" speed="13.90" length="2.63" width="3.50" shape="256.79,203.24 255.54,204.27 254.55,204.44"/>
    </edge>
    <edge id=":-1320_9" function="internal">
        <lane id=":-1320_9_0" index="0" speed="13.90" length="2.63" width="3.50" shape="254.55,204.44 253.81,203.75 253.34,202.20"/>
    </edge>
    <edge id=":-1320_6" function="internal">
        <lane id=":-1320_6_0" index="0" speed="13.90" length="7.67" width="3.50" shape="250.44,209.29 251.49,207.27 252.15,205.85 252.67,204.38 253.34,202.20"/>
    </edge>
    <edge id=":-1320_7" function="internal">
        <lane id=":-1320_7_0" index="0" speed="13.90" length="5.11" width="3.50" shape="250.44,209.29 251.88,207.27 253.65,206.01 254.10,205.90"/>
    </edge>
    <edge id=":-1320_8" function="internal">
        <lane id=":-1320_8_0" index="0" speed="13.90" length="2.63" width="3.50" shape="250.44,209.29 251.87,208.51 252.87,208.53"/>
    </edge>
    <edge id=":-1320_10" function="internal">
        <lane id=":-1320_10_0" index="0" speed="13.90" length="4.20" width="3.50" shape="254.10,205.90 255.77,205.50 258.24,205.75"/>
    </edge>
    <edge id=":-1320_11" function="internal">
        <lane id=":-1320_11_0" index="0" speed="13.90" length="2.63" width="3.50" shape="252.87,208.53 253.46,209.35 253.63,210.96"/>
    </edge>
    <edge id=":-460_0" function="internal">
        <lane id=":-460_0_0" index="0" speed="13.90" length="0.82" width="3.50" shape="163.86,141.79 163.63,141.71 163.47,141.64 163.32,141.57 163.11,141.45"/>
    </edge>
    <edge id=":-460_1" function="internal">
        <lane id=":-460_1_0" index="0" speed="13.90" length="2.63" width="3.50" shape="163.86,141.79 162.89,140.49 162.78,139.49"/>
    </edge>
    <edge id=":-460_4" function="internal">
        <lane id=":-460_4_0" index="0" speed="13.90" length="2.63" width="3.50" shape="162.78,139.49 163.50,138.79 165.08,138.40"/>
    </edge>
    <edge id=":-460_2" function="internal">