<?xml version='1.0' encoding='UTF-8'?>
<edges>
  <edge id="-2210" from="-1302" to="-1270" numLanes="1" width="3.5" shape="316.849130,-461.401200 318.283551,-447.168312 321.068463,-431.670859 326.405840,-413.885252 334.903593,-393.751815 346.002690,-371.918618 355.070393,-350.900818 357.765466,-333.122109 354.986387,-318.773267 348.845638,-307.292876 341.072017,-297.343690 "/>
  <edge id="--2210" to="-1302" from="-1270" numLanes="1" width="3.5" shape="341.072017,-297.343690 348.845638,-307.292876 354.986387,-318.773267 357.765466,-333.122109 355.070393,-350.900818 346.002690,-371.918618 334.903593,-393.751815 326.405840,-413.885252 321.068463,-431.670859 318.283551,-447.168312 316.849130,-461.401200 "/>
  <edge id="-2208" from="-1312" to="-1292" numLanes="1" width="3.5" shape="228.766750,-602.270330 223.290153,-607.344183 209.322541,-617.215289 195.571410,-623.513054 178.558624,-626.659595 169.012101,-627.772148 156.413218,-627.894494 147.880881,-627.568812 137.803232,-624.991757 128.967316,-618.231739 117.441100,-603.143634 109.017080,-585.028143 102.197920,-562.445365 88.213090,-506.730345 80.640390,-467.292310 "/>
  <edge id="--2208" to="-1312" from="-1292" numLanes="1" width="3.5" shape="80.640390,-467.292310 88.213090,-506.730345 102.197920,-562.445365 109.017080,-585.028143 117.441100,-603.143634 128.967316,-618.231739 137.803232,-624.991757 147.880881,-627.568812 156.413218,-627.894494 169.012101,-627.772148 178.558624,-626.659595 195.571410,-623.513054 209.322541,-617.215289 223.290153,-607.344183 228.766750,-602.270330 "/>
  <edge id="-2206" from="-1292" to="-720" numLanes="1" width="3.5" shape="75.876384,-463.016510 58.024610,-461.551616 34.124937,-451.878818 12.523243,-436.837120 -0.492793,-420.640459 -9.819464,-406.401728 -16.749171,-391.232161 -22.511812,-372.146296 -39.666756,-322.203080 -53.828766,-248.352890 -63.115276,-182.205760 -68.727476,-127.689240 -70.857336,-93.610670 -69.504426,-71.156730 -64.059676,-49.536200 -52.927486,-29.751820 -42.661906,-19.253540 -26.852916,-11.736090 7.182105,-4.944390 "/>
  <edge id="--2206" to="-1292" from="-720" numLanes="1" width="3.5" shape="7.182105,-4.944390 -26.852916,-11.736090 -42.661906,-19.253540 -52.927486,-29.751820 -64.059676,-49.536200 -69.504426,-71.156730 -70.857336,-93.610670 -68.727476,-127.689240 -63.115276,-182.205760 -53.828766,-248.352890 -39.666756,-322.203080 -22.511812,-372.146296 -16.749171,-391.232161 -9.819464,-406.401728 -0.492793,-420.640459 12.523243,-436.837120 34.124937,-451.878818 58.024610,-461.551616 75.876384,-463.016510 "/>
  <edge id="-2094" from="-1320" to="Custom27" numLanes="1" width="3.5" shape="186.962590,-505.161120 195.663045,-503.095758 202.381791,-502.092314 212.810811,-502.468219 222.221689,-503.885800 231.733821,-506.892357 238.419996,-509.319373 248.932824,-514.028586 301.601730,-542.278042 "/>
  <edge id="--2094" to="-1320" from="Custom27" numLanes="1" width="3.5" shape="301.601730,-542.278042 248.932824,-514.028586 238.419996,-509.319373 231.733821,-506.892357 222.221689,-503.885800 212.810811,-502.468219 202.381791,-502.092314 195.663045,-503.095758 186.962590,-505.161120 "/>
  <edge id="-2092" from="-1260" to="-1292" numLanes="1" width="3.5" shape="231.906120,-314.054290 210.460675,-313.500245 188.953387,-313.357704 167.618775,-314.350155 147.876793,-318.449015 131.138170,-327.823407 117.591307,-344.185318 106.903946,-368.257095 97.883545,-397.259628 89.335477,-428.041168 80.917080,-459.460850 "/>
  <edge id="--2092" to="-1260" from="-1292" numLanes="1" width="3.5" shape="80.917080,-459.460850 89.335477,-428.041168 97.883545,-397.259628 106.903946,-368.257095 117.591307,-344.185318 131.138170,-327.823407 147.876793,-318.449015 167.618775,-314.350155 188.953387,-313.357704 210.460675,-313.500245 231.906120,-314.054290 "/>
  <edge id="-2090" from="-1272" to="Custom28" numLanes="2" width="3.5" shape="340.978013,-98.280393 351.957781,-96.776117 364.875237,-94.324801 380.568336,-89.767881 395.529064,-81.103576 406.755578,-66.760521 414.417875,-48.644878 419.137672,-29.517728 421.476351,-9.377782 421.457158,11.802418 417.037895,31.606874 406.104547,48.152821 387.633208,61.775352 361.835861,72.424762 332.471087,78.650593 303.315594,79.591240 275.409151,77.448187 263.787400,76.236470 249.568152,74.753931 227.432181,72.177685 209.829089,69.957925 209.700787,69.944144 193.942748,68.544832 193.617861,68.531147 176.864639,68.604412 176.607018,68.615036 176.350879,68.644596 158.596195,71.359620 158.273682,71.424580 157.958693,71.519535 139.739658,77.960320 139.472366,78.067375 139.214778,78.196038 120.391486,88.586721 120.038727,88.809881 100.847284,102.618896 100.628179,102.790162 83.485767,117.322987 83.277304,117.514741 70.142763,130.616450 69.892343,130.894497 58.710069,144.731498 58.510138,145.004977 46.900440,162.615153 46.687078,162.986374 34.988374,186.572166 34.825569,186.956377 23.757132,218.131949 23.685778,218.356661 12.772195,257.218501 12.737055,257.353981 1.742668,303.521568 1.699120,303.733231 -7.458040,356.435670 -7.493507,356.698485 -13.170427,415.499971 -13.180850,415.635330 -16.988290,481.830800 -16.989178,481.846893 -20.862978,555.076732 -24.786286,626.646994 -28.376497,688.618340 -31.739462,744.380160 "/>
  <edge id="-2058" from="-1198" to="-798" numLanes="1" width="3.5" shape="259.689140,-467.128210 254.801165,-470.193453 249.635643,-471.117885 243.248071,-469.858693 238.522515,-466.544940 235.811110,-463.955619 233.208210,-462.644944 228.010141,-462.083910 221.708317,-462.184995 204.747121,-462.222044 186.855638,-465.832057 177.009287,-467.658326 170.457279,-470.008601 "/>
  <edge id="--2058" to="-1198" from="-798" numLanes="1" width="3.5" shape="170.457279,-470.008601 177.009287,-467.658326 186.855638,-465.832057 204.747121,-462.222044 221.708317,-462.184995 228.010141,-462.083910 233.208210,-462.644944 235.811110,-463.955619 238.522515,-466.544940 243.248071,-469.858693 249.635643,-471.117885 254.801165,-470.193453 259.689140,-467.128210 "/>
  <edge id="-2056" from="Custom29" to="-792" numLanes="1" width="3.5" shape="271.589130,-568.951450 253.416680,-555.784085 240.842122,-548.578757 226.031334,-540.271851 213.902043,-538.874462 202.147894,-538.729983 200.455436,-539.326040 "/>
  <edge id="--2056" to="Custom29" from="-792" numLanes="1" width="3.5" shape="200.455436,-539.326040 202.147894,-538.729983 213.902043,-538.874462 226.031334,-540.271851 240.842122,-548.578757 253.416680,-555.784085 271.589130,-568.951450 "/>
  <edge id="-2054" from="-798" to="Custom30" numLanes="1" width="3.5" shape="159.661780,-471.705110 153.967729,-471.980600 111.792101,-478.849315 "/>
  <edge id="--2054" to="-798" from="Custom30" numLanes="1" width="3.5" shape="111.792101,-478.849315 153.967729,-471.980600 159.661780,-471.705110 "/>
  <edge id="-2052" from="-792" to="-462" numLanes="1" width="3.5" shape="190.309370,-543.590070 181.073533,-548.499086 171.028543,-553.319531 158.720258,-558.301017 142.100313,-560.444079 123.231758,-562.753806 109.868705,-566.709958 "/>
  <edge id="--2052" to="-792" from="-462" numLanes="1" width="3.5" shape="109.868705,-566.709958 123.231758,-562.753806 142.100313,-560.444079 158.720258,-558.301017 171.028543,-553.319531 181.073533,-548.499086 190.309370,-543.590070 "/>
  <edge id="-2050" from="-708" to="-738" numLanes="1" width="3.5" shape="31.115910,-11.590181 38.271420,-23.175669 44.373615,-34.454648 48.765777,-45.667012 52.377566,-59.238257 56.230073,-76.842274 60.123710,-94.960921 63.745613,-109.987532 67.550488,-123.153398 72.351064,-136.630055 79.624594,-151.512084 90.102065,-167.811656 100.864884,-182.288251 109.082296,-192.042196 115.924487,-198.789901 123.310899,-204.730786 132.157063,-209.380233 142.807589,-211.932034 154.327298,-212.977674 165.820299,-213.122987 177.827613,-211.633514 190.748800,-207.930641 202.980650,-203.399408 213.002680,-199.515811 221.628090,-196.156011 "/>
  <edge id="--2050" to="-708" from="-738" numLanes="1" width="3.5" shape="221.628090,-196.156011 213.002680,-199.515811 202.980650,-203.399408 190.748800,-207.930641 177.827613,-211.633514 165.820299,-213.122987 154.327298,-212.977674 142.807589,-211.932034 132.157063,-209.380233 123.310899,-204.730786 115.924487,-198.789901 109.082296,-192.042196 100.864884,-182.288251 90.102065,-167.811656 79.624594,-151.512084 72.351064,-136.630055 67.550488,-123.153398 63.745613,-109.987532 60.123710,-94.960921 56.230073,-76.842274 52.377566,-59.238257 48.765777,-45.667012 44.373615,-34.454648 38.271420,-23.175669 31.115910,-11.590181 "/>
  <edge id="-2046" from="-726" to="-1256" numLanes="1" width="3.5" shape="241.946500,-198.430260 244.265552,-201.414912 247.729315,-228.511297 249.775199,-262.268463 246.625795,-300.554710 "/>
  <edge id="--2046" to="-726" from="-1256" numLanes="1" width="3.5" shape="246.625795,-300.554710 249.775199,-262.268463 247.729315,-228.511297 244.265552,-201.414912 241.946500,-198.430260 "/>
  <edge id="-2018" from="-1186" to="-1302" numLanes="1" width="3.5" shape="499.049960,-588.482800 494.773830,-593.511632 489.327497,-598.078052 482.086439,-601.843946 474.608877,-604.968390 468.387842,-607.765981 462.472893,-610.676196 455.802884,-614.115708 449.317345,-618.285080 444.032757,-623.111234 439.272730,-627.642635 434.070431,-630.867322 427.990108,-632.410090 421.052291,-632.159456 414.571541,-630.422061 409.837172,-627.486548 406.743462,-623.151423 404.849756,-617.205173 403.770706,-609.886342 403.052604,-601.707373 401.912996,-593.826235 399.627658,-587.178440 396.034023,-581.164132 391.164899,-574.973723 385.272948,-568.494045 378.812304,-561.773175 372.823135,-554.807720 368.034125,-547.662585 363.341987,-540.727313 357.503708,-534.464880 350.549357,-529.307336 342.988547,-525.459621 335.975998,-522.249165 330.443402,-518.988104 325.785227,-515.804926 321.257248,-512.867090 317.097685,-509.681581 313.771648,-505.641445 311.669358,-500.344442 311.057293,-493.789912 311.781838,-487.378811 313.444710,-482.449029 315.089040,-478.684588 315.893989,-475.441295 316.141410,-472.415950 "/>
  <edge id="--2018" to="-1186" from="-1302" numLanes="1" width="3.5" shape="316.141410,-472.415950 315.893989,-475.441295 315.089040,-478.684588 313.444710,-482.449029 311.781838,-487.378811 311.057293,-493.789912 311.669358,-500.344442 313.771648,-505.641445 317.097685,-509.681581 321.257248,-512.867090 325.785227,-515.804926 330.443402,-518.988104 335.975998,-522.249165 342.988547,-525.459621 350.549357,-529.307336 357.503708,-534.464880 363.341987,-540.727313 368.034125,-547.662585 372.823135,-554.807720 378.812304,-561.773175 385.272948,-568.494045 391.164899,-574.973723 396.034023,-581.164132 399.627658,-587.178440 401.912996,-593.826235 403.052604,-601.707373 403.770706,-609.886342 404.849756,-617.205173 406.743462,-623.151423 409.837172,-627.486548 414.571541,-630.422061 421.052291,-632.159456 427.990108,-632.410090 434.070431,-630.867322 439.272730,-627.642635 444.032757,-623.111234 449.317345,-618.285080 455.802884,-614.115708 462.472893,-610.676196 468.387842,-607.765981 474.608877,-604.968390 482.086439,-601.843946 489.327497,-598.078052 494.773830,-593.511632 499.049960,-588.482800 "/>
  <edge id="-2014" from="Custom31" to="-716" numLanes="2" width="3.5" shape="-51.226705,742.470072 -43.041766,625.166212 -43.035012,625.032774 -38.235131,472.639225 -27.839940,351.802057 -5.485226,250.548830 11.192767,175.007690 11.260273,174.574646 14.303279,141.588766 14.317263,141.191704 14.286155,140.795615 10.166056,110.499245 10.164655,110.489050 8.591047,99.167251 5.708729,78.429540 5.684270,78.278013 1.635875,56.275499 7.560713,29.707841 16.724924,11.692442 "/>
  <edge id="-1984" from="-1272" to="-106" numLanes="1" width="3.5" shape="330.455930,-101.857780 307.269420,-100.738702 287.056794,-100.883207 272.132489,-103.223726 262.173156,-107.368096 256.125715,-112.449539 252.655956,-117.027428 250.495702,-119.955658 248.922042,-121.840066 "/>
  <edge id="--1984" to="-1272" from="-106" numLanes="1" width="3.5" shape="248.922042,-121.840066 250.495702,-119.955658 252.655956,-117.027428 256.125715,-112.449539 262.173156,-107.368096 272.132489,-103.223726 287.056794,-100.883207 307.269420,-100.738702 330.455930,-101.857780 "/>
  <edge id="-1982" from="-1312" to="-792" numLanes="1" width="3.5" shape="229.919800,-595.942200 220.973205,-578.018693 209.926853,-565.190607 198.388939,-549.548033 197.343724,-547.737461 "/>
  <edge id="--1982" to="-1312" from="-792" numLanes="1" width="3.5" shape="197.343724,-547.737461 198.388939,-549.548033 209.926853,-565.190607 220.973205,-578.018693 229.919800,-595.942200 "/>
  <edge id="-1978" from="-104" to="-732" numLanes="1" width="3.5" shape="241.665820,-132.818220 237.211278,-140.517352 229.205428,-154.619293 228.724573,-164.952846 231.815821,-174.084922 "/>
  <edge id="--1978" to="-104" from="-732" numLanes="1" width="3.5" shape="231.815821,-174.084922 228.724573,-164.952846 229.205428,-154.619293 237.211278,-140.517352 241.665820,-132.818220 "/>
  <edge id="-1976" from="-106" to="-104" numLanes="1" width="3.5" shape="248.922040,-121.840060 245.204326,-127.069316 241.665815,-132.818217 "/>
  <edge id="--1976" to="-106" from="-104" numLanes="1" width="3.5" shape="241.665815,-132.818217 245.204326,-127.069316 248.922040,-121.840060 "/>
  <edge id="-1974" from="-462" to="-460" numLanes="1" width="3.5" shape="109.868710,-566.709960 101.611336,-569.682339 93.353963,-572.654717 "/>
  <edge id="--1974" to="-462" from="-460" numLanes="1" width="3.5" shape="93.353963,-572.654717 101.611336,-569.682339 109.868710,-566.709960 "/>
  <edge id="-1972" from="-460" to="Custom32" numLanes="1" width="3.5" shape="93.353960,-572.654720 86.829393,-576.215451 80.313574,-579.483777 73.755619,-582.128927 66.866127,-583.666670 59.566159,-583.484936 52.857156,-580.613752 47.811718,-574.548652 44.706733,-567.005112 43.204940,-559.911931 41.308204,-553.831264 37.239422,-548.844105 31.766493,-544.473450 "/>
  <edge id="--1972" to="-460" from="Custom32" numLanes="1" width="3.5" shape="31.766493,-544.473450 37.239422,-548.844105 41.308204,-553.831264 43.204940,-559.911931 44.706733,-567.005112 47.811718,-574.548652 52.857156,-580.613752 59.566159,-583.484936 66.866127,-583.666670 73.755619,-582.128927 80.313574,-579.483777 86.829393,-576.215451 93.353960,-572.654720 "/>
  <edge id="-1968" from="-798" to="Custom33" numLanes="1" width="3.5" shape="164.628080,-464.650990 162.966425,-459.003683 162.040920,-449.016546 163.369673,-438.813472 "/>
  <edge id="--1968" to="-798" from="Custom33" numLanes="1" width="3.5" shape="163.369673,-438.813472 162.040920,-449.016546 162.966425,-459.003683 164.628080,-464.650990 "/>
  <edge id="-1966" from="-94" to="-1312" numLanes="1" width="3.5" shape="516.884070,-696.642600 509.406232,-703.708500 502.700030,-707.576469 489.746952,-711.257497 474.800180,-712.659488 443.299083,-702.185789 356.169400,-658.240769 305.322910,-629.985460 265.045870,-613.375306 235.427140,-601.079809 "/>
  <edge id="--1966" to="-94" from="-1312" numLanes="1" width="3.5" shape="235.427140,-601.079809 265.045870,-613.375306 305.322910,-629.985460 356.169400,-658.240769 443.299083,-702.185789 474.800180,-712.659488 489.746952,-711.257497 502.700030,-707.576469 509.406232,-703.708500 516.884070,-696.642600 "/>
  <edge id="-2042_2" from="-1270" to="-1266" numLanes="1" width="3.5" shape="332.345280,-297.533270 323.220590,-309.556566 302.554992,-317.719697 286.197192,-318.401927 259.867993,-315.417115 "/>
  <edge id="--2042_2" to="-1270" from="-1266" numLanes="1" width="3.5" shape="259.867993,-315.417115 286.197192,-318.401927 302.554992,-317.719697 323.220590,-309.556566 332.345280,-297.533270 "/>
  <edge id="-1970_1" from="-792" to="-1320" numLanes="1" width="3.5" shape="192.640760,-537.819200 190.263183,-530.171129 184.204606,-509.940175 "/>
  <edge id="--1970_1" to="-792" from="-1320" numLanes="1" width="3.5" shape="184.204606,-509.940175 190.263183,-530.171129 192.640760,-537.819200 "/>
  <edge id="-1970_2" from="-1320" to="-798" numLanes="1" width="3.5" shape="181.178580,-502.533410 172.154658,-485.399042 168.136075,-475.110379 "/>
  <edge id="--1970_2" to="-1320" from="-798" numLanes="1" width="3.5" shape="168.136075,-475.110379 172.154658,-485.399042 181.178580,-502.533410 "/>
  <edge id="-2088_1" from="-1258" to="-1260" numLanes="2" width="3.5" shape="235.278856,-322.569657 234.023400,-319.150277 "/>
  <edge id="-2042_1" from="-712" to="-1272" numLanes="1" width="3.5" shape="32.045854,9.100160 43.180566,22.376262 56.457374,34.517161 73.309844,44.645052 92.337405,52.911723 111.417116,60.002623 128.370684,67.708276 141.519115,77.753364 151.235976,90.494143 158.512849,105.447099 164.760839,120.138074 171.870105,132.730384 183.227496,145.927878 201.170684,161.490098 222.343944,172.858813 242.485009,172.605490 259.398856,158.138135 271.951476,130.601950 281.185689,101.254368 288.757654,79.934799 296.600066,60.698315 306.019481,35.327031 315.541359,2.295548 323.346304,-36.096944 329.016597,-68.945388 332.679653,-86.919396 335.241734,-95.593120 "/>
  <edge id="--2042_1" to="-712" from="-1272" numLanes="1" width="3.5" shape="335.241734,-95.593120 332.679653,-86.919396 329.016597,-68.945388 323.346304,-36.096944 315.541359,2.295548 306.019481,35.327031 296.600066,60.698315 288.757654,79.934799 281.185689,101.254368 271.951476,130.601950 259.398856,158.138135 242.485009,172.605490 222.343944,172.858813 201.170684,161.490098 183.227496,145.927878 171.870105,132.730384 164.760839,120.138074 158.512849,105.447099 151.235976,90.494143 141.519115,77.753364 128.370684,67.708276 111.417116,60.002623 92.337405,52.911723 73.309844,44.645052 56.457374,34.517161 43.180566,22.376262 32.045854,9.100160 "/>
  <edge id="-2042_3" from="-1272" to="-1270" numLanes="1" width="3.5" shape="338.265100,-106.190860 349.771975,-162.841158 360.914888,-200.050699 366.817808,-256.420610 353.364058,-277.091630 339.598550,-289.277430 "/>
  <edge id="--2042_3" to="-1272" from="-1270" numLanes="1" width="3.5" shape="339.598550,-289.277430 353.364058,-277.091630 366.817808,-256.420610 360.914888,-200.050699 349.771975,-162.841158 338.265100,-106.190860 "/>
  <edge id="-2088_3" from="-1254" to="-1258" numLanes="2" width="3.5" shape="240.383192,-326.062215 237.094008,-324.539501 "/>
  <edge id="-2086_1" from="-1254" to="-1198" numLanes="1" width="3.5" shape="244.665840,-328.506610 244.490717,-329.330424 242.887044,-344.605348 242.164827,-367.495353 240.156567,-393.022215 239.907284,-407.609599 241.797539,-421.882008 245.515069,-434.297840 249.915128,-445.940230 256.374778,-456.246810 260.915382,-461.821920 "/>
  <edge id="--2086_1" to="-1254" from="-1198" numLanes="1" width="3.5" shape="260.915382,-461.821920 256.374778,-456.246810 249.915128,-445.940230 245.515069,-434.297840 241.797539,-421.882008 239.907284,-407.609599 240.156567,-393.022215 242.164827,-367.495353 242.887044,-344.605348 244.490717,-329.330424 244.665840,-328.506610 "/>
  <edge id="-2086_2" from="-1198" to="-1302" numLanes="1" width="3.5" shape="267.146060,-466.358580 275.002022,-470.009913 284.546767,-471.454858 297.144084,-470.806081 306.231645,-467.650449 309.636435,-466.848320 "/>
  <edge id="--2086_2" to="-1198" from="-1302" numLanes="1" width="3.5" shape="309.636435,-466.848320 306.231645,-467.650449 297.144084,-470.806081 284.546767,-471.454858 275.002022,-470.009913 267.146060,-466.358580 "/>
  <edge id="-2044_2" from="-708" to="-720" numLanes="2" width="3.5" shape="26.416530,-12.866144 23.017492,-14.122860 22.705063,-14.222009 22.384730,-14.291495 22.059301,-14.330710 21.731631,-14.339309 21.404593,-14.317217 21.081056,-14.264627 20.763857,-14.182001 20.455780,-14.070064 20.159524,-13.929797 19.877691,-13.762431 15.393813,-10.807232 "/>
  <edge id="-2048_1" from="-738" to="-732" numLanes="2" width="3.5" shape="220.515874,-191.365684 220.003573,-187.356826 219.977371,-187.032402 219.981420,-186.706947 220.015683,-186.383275 220.079866,-186.064185 220.173413,-185.752438 220.295515,-185.450728 222.787884,-180.031476 222.937845,-179.741791 223.114123,-179.467325 223.315188,-179.210462 223.539294,-178.973433 223.784493,-178.758298 224.048657,-178.566925 227.415328,-176.359596 "/>
  <edge id="-2048_2" from="-732" to="-726" numLanes="2" width="3.5" shape="238.898035,-176.815905 242.079188,-179.283480 242.327310,-179.495177 242.554647,-179.729052 242.759227,-179.983074 242.939273,-180.255037 243.093220,-180.542579 243.219733,-180.843203 245.274839,-186.443185 245.372641,-186.753613 245.441185,-187.071784 245.479877,-187.394946 245.488383,-187.720305 245.466629,-188.045047 245.414804,-188.366364 244.586501,-192.321819 "/>
  <edge id="-2048_3" from="-726" to="-738" numLanes="2" width="3.5" shape="236.509555,-200.057787 233.128578,-200.851276 232.818801,-200.909401 232.505052,-200.939423 232.189874,-200.941098 231.875823,-200.914412 231.565446,-200.859582 231.261260,-200.777053 227.953710,-199.717643 "/>
  <edge id="-2088_2" from="-1260" to="-1256" numLanes="2" width="3.5" shape="234.424566,-309.056003 235.946775,-305.747943 236.105501,-305.443323 236.293321,-305.155730 236.508427,-304.887931 236.748748,-304.642508 237.011968,-304.421823 237.295553,-304.228003 237.596770,-304.062914 237.912720,-303.928145 241.312836,-302.671211 "/>
  <edge id="-1980_1" from="-94" to="-1186" numLanes="1" width="3.5" shape="516.884070,-696.642600 521.267125,-691.348883 527.639126,-681.706962 532.150848,-665.324253 529.577600,-641.493071 517.466298,-611.388602 506.543717,-589.292360 "/>
  <edge id="--1980_1" to="-94" from="-1186" numLanes="1" width="3.5" shape="506.543717,-589.292360 517.466298,-611.388602 529.577600,-641.493071 532.150848,-665.324253 527.639126,-681.706962 521.267125,-691.348883 516.884070,-696.642600 "/>
  <edge id="-1980_2" from="-1186" to="-1302" numLanes="1" width="3.5" shape="501.752100,-579.348310 494.379717,-563.334540 480.136863,-542.497783 464.491039,-521.184057 446.382411,-501.195681 433.146293,-492.289173 419.874397,-484.580345 407.203184,-480.451476 381.594810,-475.170260 359.498130,-472.169020 323.282140,-467.203070 "/>
  <edge id="--1980_2" to="-1186" from="-1302" numLanes="1" width="3.5" shape="323.282140,-467.203070 359.498130,-472.169020 381.594810,-475.170260 407.203184,-480.451476 419.874397,-484.580345 433.146293,-492.289173 446.382411,-501.195681 464.491039,-521.184057 480.136863,-542.497783 494.379717,-563.334540 501.752100,-579.348310 "/>
  <edge id="-2044_1" from="-720" to="-716" numLanes="2" width="3.5" shape="9.674477,2.391774 10.567984,4.333793 "/>
  <edge id="-2088_4" from="-1256" to="-1266" numLanes="2" width="3.5" shape="251.414709,-303.073131 254.703905,-304.595840 255.008125,-304.755246 255.295257,-304.943702 255.562536,-305.159392 255.807387,-305.400241 256.027454,-305.663928 256.220617,-305.947914 256.385016,-306.249465 256.519068,-306.565678 257.774277,-309.984371 "/>
  <edge id="-2088_5" from="-1266" to="-1254" numLanes="2" width="3.5" shape="257.373372,-320.079361 255.851150,-323.387439 255.692424,-323.692059 255.504603,-323.979653 255.289496,-324.247451 255.049174,-324.492875 254.785953,-324.713559 254.502367,-324.907379 254.201149,-325.072468 253.885198,-325.207236 250.484734,-326.464288 "/>
  <edge id="-2044_3" from="-716" to="-712" numLanes="2" width="3.5" shape="17.984607,11.199725 21.383632,12.456448 21.712204,12.559859 22.049350,12.630472 22.391805,12.667601 22.736250,12.670888 23.079351,12.640301 23.417783,12.576135 23.748268,12.479013 24.067607,12.349876 27.357015,10.827267 "/>
  <edge id="-2044_4" from="-712" to="-708" numLanes="2" width="3.5" shape="34.205728,3.395443 35.461001,-0.022902 35.563189,-0.349791 35.632938,-0.685103 35.669582,-1.025626 35.672768,-1.368100 35.642467,-1.709246 35.578968,-2.045797 35.482880,-2.374531 35.355123,-2.692299 33.832705,-6.001236 "/>
</edges>
