<?xml version="1.0" encoding="UTF-8"?>

<!-- generated on Thu Jul 13 09:43:25 2017 by SUMO netconvert Version 0.30.0
<?xml version="1.0" encoding="UTF-8"?>

<configuration xmlns:xsi="http://www.w3.org/2001/XMLSchema-instance" xsi:noNamespaceSchemaLocation="http://sumo.dlr.de/xsd/netconvertConfiguration.xsd">

    <input>
        <node-files value="/Users/fabien/develop/webots-master/projects/automobile/worlds/village_net/sumo.nod.xml"/>
        <edge-files value="/Users/fabien/develop/webots-master/projects/automobile/worlds/village_net/sumo.edg.xml"/>
    </input>

    <output>
        <output-file value="/Users/fabien/develop/webots-master/projects/automobile/worlds/village_net/sumo.net.xml"/>
    </output>

</configuration>
-->

<net version="0.27" xmlns:xsi="http://www.w3.org/2001/XMLSchema-instance" xsi:noNamespaceSchemaLocation="http://sumo.dlr.de/xsd/net_file.xsd">

    <location netOffset="712.66,532.15" convBoundary="0.00,0.00,1457.25,603.01" origBoundary="-712.66,-532.15,744.59,70.86" projParameter="!"/>

    <edge id=":-104_0" function="internal">
        <lane id=":-104_0_0" index="0" speed="13.90" length="0.31" width="3.50" shape="580.90,291.95 580.63,292.11"/>
    </edge>
    <edge id=":-104_1" function="internal">
        <lane id=":-104_1_0" index="0" speed="13.90" length="2.63" width="3.50" shape="580.90,291.95 579.28,291.89 578.42,291.36"/>
    </edge>
    <edge id=":-104_4" function="internal">
        <lane id=":-104_4_0" index="0" speed="13.90" length="2.63" width="3.50" shape="578.42,291.36 578.33,290.36 579.01,288.88"/>
    </edge>
    <edge id=":-104_2" function="internal">
        <lane id=":-104_2_0" index="0" speed="13.90" length="0.21" width="3.50" shape="578.83,288.99 579.01,288.88"/>
    </edge>
    <edge id=":-104_3" function="internal">
        <lane id=":-104_3_0" index="0" speed="13.90" length="2.63" width="3.50" shape="578.83,288.99 580.45,289.10 581.29,289.65"/>
    </edge>
    <edge id=":-104_5" function="internal">
        <lane id=":-104_5_0" index="0" speed="13.90" length="2.63" width="3.50" shape="581.29,289.65 581.35,290.65 580.63,292.11"/>
    </edge>
    <edge id=":-106_0" function="internal">
        <lane id=":-106_0_0" index="0" speed="13.90" length="0.50" width="3.50" shape="592.12,284.48 592.01,284.58 591.93,284.64 591.85,284.71 591.73,284.79"/>
    </edge>
    <edge id=":-106_1" function="internal">
        <lane id=":-106_1_0" index="0" speed="13.90" length="2.63" width="3.50" shape="592.12,284.48 590.51,284.68 589.58,284.30"/>
    </edge>
    <edge id=":-106_4" function="internal">
        <lane id=":-106_4_0" index="0" speed="13.90" length="2.63" width="3.50" shape="589.58,284.30 589.34,283.32 589.77,281.76"/>
    </edge>
    <edge id=":-106_2" function="internal">
        <lane id=":-106_2_0" index="0" speed="13.90" length="0.16" width="3.50" shape="589.64,281.86 589.68,281.83 589.71,281.81 589.73,281.79 589.77,281.76"/>
    </edge>
    <edge id=":-106_3" function="internal">
        <lane id=":-106_3_0" index="0" speed="13.90" length="2.63" width="3.50" shape="589.64,281.86 591.26,281.81 592.15,282.28"/>
    </edge>
    <edge id=":-106_5" function="internal">
        <lane id=":-106_5_0" index="0" speed="13.90" length="2.63" width="3.50" shape="592.15,282.28 592.31,283.28 591.73,284.79"/>
    </edge>
    <edge id=":-1186_0" function="internal">
        <lane id=":-1186_0_0" index="0" speed="13.90" length="8.01" width="3.50" shape="132.56,32.03 131.11,31.73 129.42,32.04 127.49,32.97 125.30,34.51"/>
    </edge>
    <edge id=":-1186_1" function="internal">
        <lane id=":-1186_1_0" index="0" speed="13.90" length="11.09" width="3.50" shape="132.56,32.03 122.57,27.22"/>
    </edge>
    <edge id=":-1186_2" function="internal">
        <lane id=":-1186_2_0" index="0" speed="13.90" length="2.63" width="3.50" shape="132.56,32.03 131.71,30.65 131.68,29.65"/>
    </edge>
    <edge id=":-1186_9" function="internal">
        <lane id=":-1186_9_0" index="0" speed="13.90" length="2.63" width="3.50" shape="131.68,29.65 132.46,29.02 134.06,28.76"/>
    </edge>
    <edge id=":-1186_3" function="internal">
        <lane id=":-1186_3_0" index="0" speed="13.90" length="10.99" width="3.50" shape="124.16,23.99 134.06,28.76"/>
    </edge>
    <edge id=":-1186_4" function="internal">
        <lane id=":-1186_4_0" index="0" speed="13.90" length="6.18" width="3.50" shape="124.16,23.99 127.55,26.29 128.52,28.14"/>
    </edge>
    <edge id=":-1186_5" function="internal">
        <lane id=":-1186_5_0" index="0" speed="13.90" length="2.63" width="3.50" shape="124.16,23.99 124.98,25.40 124.98,26.40"/>
    </edge>
    <edge id=":-1186_10" function="internal">
        <lane id=":-1186_10_0" index="0" speed="13.90" length="7.67" width="3.50" shape="128.52,28.14 128.86,28.80 128.11,31.54 125.30,34.51"/>
    </edge>
    <edge id=":-1186_11" function="internal">
        <lane id=":-1186_11_0" index="0" speed="13.90" length="2.63" width="3.50" shape="124.98,26.40 124.18,27.01 122.57,27.22"/>
    </edge>
    <edge id=":-1186_6" function="internal">
        <lane id=":-1186_6_0" index="0" speed="13.90" length="5.90" width="3.50" shape="123.05,31.69 124.25,30.43 124.57,29.27 124.01,28.20 122.57,27.22"/>
    </edge>
    <edge id=":-1186_7" function="internal">
        <lane id=":-1186_7_0" index="0" speed="13.90" length="11.98" width="3.50" shape="123.05,31.69 126.12,29.61 128.98,28.42 131.63,28.14 134.06,28.76"/>
    </edge>
    <edge id=":-1186_8" function="internal">
        <lane id=":-1186_8_0" index="0" speed="13.90" length="5.26" width="3.50" shape="123.05,31.69 124.67,31.55 125.58,31.98 125.79,32.96 125.30,34.51"/>
    </edge>
    <edge id=":-1198_0" function="internal">
        <lane id=":-1198_0_0" index="0" speed="13.90" length="3.18" width="3.50" shape="249.70,272.63 249.00,272.24 248.34,272.24 247.70,272.61 247.09,273.37"/>
    </edge>
    <edge id=":-1198_1" function="internal">
        <lane id=":-1198_1_0" index="0" speed="13.90" length="8.65" width="3.50" shape="249.70,272.63 247.77,270.97 246.62,269.64 245.75,268.09 244.67,265.76"/>
    </edge>
    <edge id=":-1198_2" function="internal">
        <lane id=":-1198_2_0" index="0" speed="13.90" length="2.78" width="3.50" shape="249.70,272.63 249.19,271.09 249.40,270.10 249.54,270.04"/>
    </edge>
    <edge id=":-1198_9" function="internal">
        <lane id=":-1198_9_0" index="0" speed="13.90" length="2.47" width="3.50" shape="249.54,270.04 250.31,269.67 251.92,269.80"/>
    </edge>
    <edge id=":-1198_3" function="internal">
        <lane id=":-1198_3_0" index="0" speed="13.90" length="6.94" width="3.50" shape="247.93,264.25 248.79,266.12 249.47,267.38 250.38,268.46 251.92,269.80"/>
    </edge>
    <edge id=":-1198_4" function="internal">
        <lane id=":-1198_4_0" index="0" speed="13.90" length="5.18" width="3.50" shape="247.93,264.25 248.66,266.49 248.76,268.76 248.64,269.29"/>
    </edge>
    <edge id=":-1198_5" function="internal">
        <lane id=":-1198_5_0" index="0" speed="13.90" length="2.63" width="3.50" shape="247.93,264.25 247.69,265.85 247.06,266.64"/>
    </edge>
    <edge id=":-1198_10" function="internal">
        <lane id=":-1198_10_0" index="0" speed="13.90" length="4.39" width="3.50" shape="248.64,269.29 248.24,271.05 247.09,273.37"/>
    </edge>
    <edge id=":-1198_11" function="internal">
        <lane id=":-1198_11_0" index="0" speed="13.90" length="2.63" width="3.50" shape="247.06,266.64 246.05,266.61 244.67,265.76"/>
    </edge>
    <edge id=":-1198_6" function="internal">
        <lane id=":-1198_6_0" index="0" speed="13.90" length="6.03" width="3.50" shape="244.01,271.51 244.77,270.00 245.13,268.54 245.10,267.13 244.67,265.76"/>
    </edge>
    <edge id=":-1198_7" function="internal">
        <lane id=":-1198_7_0" index="0" speed="13.90" length="9.51" width="3.50" shape="244.01,271.51 245.77,269.37 247.68,268.38 249.73,268.52 251.92,269.80"/>
    </edge>
    <edge id=":-1198_8" function="internal">
        <lane id=":-1198_8_0" index="0" speed="13.90" length="5.26" width="3.50" shape="244.01,271.51 245.48,270.82 246.48,270.90 247.02,271.75 247.09,273.37"/>
    </edge>
    <edge id=":-1254_0" function="internal">
        <lane id=":-1254_0_0" index="0" speed="13.90" length="7.60" width="3.50" shape="391.26,283.54 390.69,285.27 390.52,286.55 390.79,287.82 391.50,289.50"/>
        <lane id=":-1254_0_1" index="1" speed="13.90" length="7.60" width="3.50" shape="387.88,282.29 387.29,284.50 387.15,286.69 387.46,288.86 388.23,291.01"/>
    </edge>
    <edge id=":-1254_2" function="internal">
        <lane id=":-1254_2_0" index="0" speed="13.90" length="7.78" width="3.50" shape="387.88,282.29 387.35,283.74 386.44,286.04 385.42,288.20 384.53,289.25"/>
    </edge>
    <edge id=":-1254_3" function="internal">
        <lane id=":-1254_3_0" index="0" speed="13.90" length="7.23" width="3.50" shape="383.78,285.72 384.74,285.90 385.80,286.84 386.96,288.54 388.23,291.01"/>
    </edge>
    <edge id=":-1254_4" function="internal">
        <lane id=":-1254_4_0" index="0" speed="13.90" length="5.26" width="3.50" shape="383.78,285.72 385.29,286.32 385.91,287.11 385.66,288.08 384.53,289.25"/>
    </edge>
    <edge id=":-1256_0" function="internal">
        <lane id=":-1256_0_0" index="0" speed="13.90" length="7.45" width="3.50" shape="412.25,287.32 411.40,287.00 410.41,285.93 409.26,284.09 407.95,281.49"/>
    </edge>
    <edge id=":-1256_1" function="internal">
        <lane id=":-1256_1_0" index="0" speed="13.90" length="5.26" width="3.50" shape="412.25,287.32 410.83,286.53 410.31,285.67 410.69,284.74 411.96,283.73"/>
    </edge>
    <edge id=":-1256_2" function="internal">
        <lane id=":-1256_2_0" index="0" speed="13.90" length="7.60" width="3.50" shape="404.92,288.97 405.50,287.23 405.66,285.95 405.40,284.68 404.69,283.00"/>
        <lane id=":-1256_2_1" index="1" speed="13.90" length="7.60" width="3.50" shape="408.30,290.21 408.89,288.01 409.03,285.82 408.72,283.65 407.95,281.49"/>
    </edge>
    <edge id=":-1256_4" function="internal">
        <lane id=":-1256_4_0" index="0" speed="13.90" length="7.58" width="3.50" shape="408.30,290.21 409.41,287.42 410.39,285.41 411.24,284.18 411.96,283.73"/>
    </edge>
    <edge id=":-1258_0" function="internal">
        <lane id=":-1258_0_0" index="0" speed="13.90" length="2.84" width="3.50" shape="392.39,291.42 392.57,291.78 392.75,292.01 392.99,292.17 393.37,292.32"/>
        <lane id=":-1258_0_1" index="1" speed="13.90" length="2.84" width="3.50" shape="389.12,292.93 389.68,294.05 390.23,294.75 390.97,295.23 392.13,295.70"/>
    </edge>
    <edge id=":-1260_0" function="internal">
        <lane id=":-1260_0_0" index="0" speed="13.90" length="7.53" width="3.50" shape="396.81,300.30 397.17,299.51 398.30,298.54 400.19,297.40 402.85,296.09"/>
    </edge>
    <edge id=":-1260_1" function="internal">
        <lane id=":-1260_1_0" index="0" speed="13.90" length="5.26" width="3.50" shape="396.81,300.30 397.67,298.92 398.55,298.45 399.47,298.87 400.40,300.19"/>
    </edge>
    <edge id=":-1260_2" function="internal">
        <lane id=":-1260_2_0" index="0" speed="13.90" length="7.68" width="3.50" shape="395.37,293.06 397.11,293.63 398.39,293.79 399.66,293.53 401.35,292.82"/>
        <lane id=":-1260_2_1" index="1" speed="13.90" length="7.68" width="3.50" shape="394.13,296.44 396.66,297.27 398.54,297.51 400.39,297.13 402.85,296.09"/>
    </edge>
    <edge id=":-1260_4" function="internal">
        <lane id=":-1260_4_0" index="0" speed="13.90" length="7.49" width="3.50" shape="394.13,296.44 396.86,297.53 398.81,298.52 400.00,299.41 400.40,300.19"/>
    </edge>
    <edge id=":-1266_0" function="internal">
        <lane id=":-1266_0_0" index="0" speed="13.90" length="7.68" width="3.50" shape="400.81,279.45 399.08,278.88 397.79,278.71 396.52,278.97 394.84,279.68"/>
        <lane id=":-1266_0_1" index="1" speed="13.90" length="7.68" width="3.50" shape="402.05,276.07 399.52,275.23 397.64,274.99 395.79,275.38 393.33,276.41"/>
    </edge>
    <edge id=":-1266_2" function="internal">
        <lane id=":-1266_2_0" index="0" speed="13.90" length="7.63" width="3.50" shape="402.05,276.07 399.22,274.95 397.17,273.98 395.92,273.16 395.45,272.49"/>
    </edge>
    <edge id=":-1266_3" function="internal">
        <lane id=":-1266_3_0" index="0" speed="13.90" length="7.39" width="3.50" shape="399.03,272.08 398.74,272.96 397.70,273.98 395.89,275.13 393.33,276.41"/>
    </edge>
    <edge id=":-1266_4" function="internal">
        <lane id=":-1266_4_0" index="0" speed="13.90" length="5.26" width="3.50" shape="399.03,272.08 398.29,273.52 397.45,274.07 396.50,273.73 395.45,272.49"/>
    </edge>
    <edge id=":-1270_0" function="internal">
        <lane id=":-1270_0_0" index="0" speed="13.90" length="11.37" width="3.50" shape="424.73,193.75 422.56,196.07 420.72,197.76 418.76,199.32 416.21,201.24"/>
    </edge>
    <edge id=":-1270_1" function="internal">
        <lane id=":-1270_1_0" index="0" speed="13.90" length="4.83" width="3.50" shape="424.73,193.75 422.64,195.28 420.42,195.55"/>
    </edge>
    <edge id=":-1270_2" function="internal">
        <lane id=":-1270_2_0" index="0" speed="13.90" length="2.73" width="3.50" shape="424.73,193.75 423.16,194.16 422.19,193.90 422.15,193.81"/>
    </edge>
    <edge id=":-1270_9" function="internal">
        <lane id=":-1270_9_0" index="0" speed="13.90" length="7.08" width="3.50" shape="420.42,195.55 420.18,195.58 417.36,194.64 414.17,192.46"/>
    </edge>
    <edge id=":-1270_10" function="internal">
        <lane id=":-1270_10_0" index="0" speed="13.90" length="2.53" width="3.50" shape="422.15,193.81 421.81,192.97 422.03,191.36"/>
    </edge>
    <edge id=":-1270_3" function="internal">
        <lane id=":-1270_3_0" index="0" speed="13.90" length="6.33" width="3.50" shape="416.47,189.69 418.34,191.06 419.89,191.80 421.12,191.89 422.03,191.36"/>
    </edge>
    <edge id=":-1270_4" function="internal">
        <lane id=":-1270_4_0" index="0" speed="13.90" length="14.00" width="3.50" shape="416.47,189.69 419.13,192.64 419.98,195.55 419.00,198.41 416.21,201.24"/>
    </edge>
    <edge id=":-1270_5" function="internal">
        <lane id=":-1270_5_0" index="0" speed="13.90" length="5.26" width="3.50" shape="416.47,189.69 416.93,191.25 416.70,192.23 415.78,192.63 414.17,192.46"/>
    </edge>
    <edge id=":-1270_6" function="internal">
        <lane id=":-1270_6_0" index="0" speed="13.90" length="7.16" width="3.50" shape="414.04,198.37 415.47,196.93 415.96,195.46 415.53,193.97 414.17,192.46"/>
    </edge>
    <edge id=":-1270_7" function="internal">
        <lane id=":-1270_7_0" index="0" speed="13.90" length="10.67" width="3.50" shape="414.04,198.37 416.50,196.53 418.29,195.14 419.95,193.61 422.03,191.36"/>
    </edge>
    <edge id=":-1270_8" function="internal">
        <lane id=":-1270_8_0" index="0" speed="13.90" length="2.63" width="3.50" shape="414.04,198.37 415.66,198.27 416.56,198.72"/>
    </edge>
    <edge id=":-1270_11" function="internal">
        <lane id=":-1270_11_0" index="0" speed="13.90" length="2.63" width="3.50" shape="416.56,198.72 416.75,199.71 416.21,201.24"/>
    </edge>
    <edge id=":-1272_0" function="internal">
        <lane id=":-1272_0_0" index="0" speed="13.90" length="7.23" width="3.50" shape="609.00,201.80 608.71,199.30 608.12,197.45 607.26,196.23 606.11,195.65"/>
    </edge>
    <edge id=":-1272_1" function="internal">
        <lane id=":-1272_1_0" index="0" speed="13.90" length="11.60" width="3.50" shape="609.00,201.80 609.35,198.79 610.43,196.61 611.69,194.31 612.60,190.91"/>
    </edge>
    <edge id=":-1272_2" function="internal">
        <lane id=":-1272_2_0" index="0" speed="13.90" length="13.88" width="3.50" shape="609.00,201.80 609.34,197.76 610.89,195.32 613.66,194.47 617.64,195.20"/>
    </edge>
    <edge id=":-1272_3" function="internal">
        <lane id=":-1272_3_0" index="0" speed="13.90" length="5.26" width="3.50" shape="609.00,201.80 609.83,200.40 610.70,199.90 611.62,200.30 612.60,201.59"/>
    </edge>
    <edge id=":-1272_4" function="internal">
        <lane id=":-1272_4_0" index="0" speed="13.90" length="6.27" width="3.50" shape="616.50,198.62 614.70,198.28 613.45,198.67 612.75,199.77 612.60,201.59"/>
    </edge>
    <edge id=":-1272_5" function="internal">
        <lane id=":-1272_5_0" index="0" speed="13.90" length="10.81" width="3.50" shape="616.50,198.62 613.56,197.62 611.36,196.91 609.13,196.31 606.11,195.65"/>
    </edge>
    <edge id=":-1272_6" function="internal">
        <lane id=":-1272_6_0" index="0" speed="13.90" length="4.76" width="3.50" shape="616.50,198.62 614.50,197.55 613.18,195.91 613.08,195.53"/>
    </edge>
    <edge id=":-1272_7" function="internal">
        <lane id=":-1272_7_0" index="0" speed="13.90" length="2.63" width="3.50" shape="616.50,198.62 615.50,197.34 615.36,196.34"/>
    </edge>
    <edge id=":-1272_12" function="internal">
        <lane id=":-1272_12_0" index="0" speed="13.90" length="4.69" width="3.50" shape="613.08,195.53 612.55,193.70 612.60,190.91"/>
    </edge>
    <edge id=":-1272_13" function="internal">
        <lane id=":-1272_13_0" index="0" speed="13.90" length="2.63" width="3.50" shape="615.36,196.34 616.07,195.63 617.64,195.20"/>
    </edge>
    <edge id=":-1272_8" function="internal">
        <lane id=":-1272_8_0" index="0" speed="13.90" length="3.20" width="3.50" shape="606.83,192.12 607.69,192.17 608.35,191.90 608.79,191.33 609.03,190.46"/>
    </edge>
    <edge id=":-1272_9" function="internal">
        <lane id=":-1272_9_0" index="0" speed="13.90" length="11.25" width="3.50" shape="606.83,192.12 609.92,192.80 612.29,193.44 614.64,194.19 617.64,195.20"/>
    </edge>
    <edge id=":-1272_10" function="internal">
        <lane id=":-1272_10_0" index="0" speed="13.90" length="5.14" width="3.50" shape="606.83,192.12 609.18,193.12 610.92,195.03"/>
    </edge>
    <edge id=":-1272_11" function="internal">
        <lane id=":-1272_11_0" index="0" speed="13.90" length="2.63" width="3.50" shape="606.83,192.12 607.97,193.27 608.23,194.24"/>
    </edge>
    <edge id=":-1272_14" function="internal">
        <lane id=":-1272_14_0" index="0" speed="13.90" length="6.83" width="3.50" shape="610.92,195.03 612.06,197.85 612.60,201.59"/>
    </edge>
    <edge id=":-1272_15" function="internal">
        <lane id=":-1272_15_0" index="0" speed="13.90" length="2.63" width="3.50" shape="608.23,194.24 607.61,195.04 606.11,195.65"/>
    </edge>
    <edge id=":-1292_0" function="internal">
        <lane id=":-1292_0_0" index="0" speed="13.90" length="4.58" width="3.50" shape="247.85,456.42 247.59,455.23 247.04,454.31 246.18,453.66 245.03,453.28"/>
    </edge>
    <edge id=":-1292_1" function="internal">
        <lane id=":-1292_1_0" index="0" speed="13.90" length="9.33" width="3.50" shape="247.85,456.42 247.98,453.92 248.84,451.94 250.43,450.46 252.74,449.49"/>
    </edge>
    <edge id=":-1292_2" function="internal">
        <lane id=":-1292_2_0" index="0" speed="13.90" length="5.26" width="3.50" shape="247.85,456.42 248.64,455.00 249.50,454.48 250.43,454.86 251.44,456.13"/>
    </edge>
    <edge id=":-1292_3" function="internal">
        <lane id=":-1292_3_0" index="0" speed="13.90" length="4.25" width="3.50" shape="253.66,452.97 252.61,453.41 251.89,454.09 251.50,454.99 251.44,456.13"/>
    </edge>
    <edge id=":-1292_4" function="internal">
        <lane id=":-1292_4_0" index="0" speed="13.90" length="8.77" width="3.50" shape="253.66,452.97 251.15,453.60 249.37,453.85 247.58,453.73 245.03,453.28"/>
    </edge>
    <edge id=":-1292_5" function="internal">
        <lane id=":-1292_5_0" index="0" speed="13.90" length="2.63" width="3.50" shape="253.66,452.97 252.13,452.45 251.46,451.70"/>
    </edge>
    <edge id=":-1292_9" function="internal">
        <lane id=":-1292_9_0" index="0" speed="13.90" length="2.63" width="3.50" shape="251.46,451.70 251.66,450.71 252.74,449.49"/>
    </edge>
    <edge id=":-1292_6" function="internal">
        <lane id=":-1292_6_0" index="0" speed="13.90" length="7.14" width="3.50" shape="245.71,449.74 247.78,450.11 249.24,450.21 250.69,450.01 252.74,449.49"/>
    </edge>
    <edge id=":-1292_7" function="internal">
        <lane id=":-1292_7_0" index="0" speed="13.90" length="4.84" width="3.50" shape="245.71,449.74 248.05,450.52 249.78,451.85 249.88,452.01"/>
    </edge>
    <edge id=":-1292_8" function="internal">
        <lane id=":-1292_8_0" index="0" speed="13.90" length="2.63" width="3.50" shape="245.71,449.74 246.86,450.88 247.14,451.85"/>
    </edge>
    <edge id=":-1292_10" function="internal">
        <lane id=":-1292_10_0" index="0" speed="13.90" length="4.46" width="3.50" shape="249.88,452.01 250.91,453.71 251.44,456.13"/>
    </edge>
    <edge id=":-1292_11" function="internal">
        <lane id=":-1292_11_0" index="0" speed="13.90" length="2.63" width="3.50" shape="247.14,451.85 246.52,452.65 245.03,453.28"/>
    </edge>
    <edge id=":-1302_0" function="internal">
        <lane id=":-1302_0_0" index="0" speed="13.90" length="7.38" width="3.50" shape="251.41,217.10 250.22,217.54 249.19,218.66 248.30,220.46 247.56,222.93"/>
    </edge>
    <edge id=":-1302_1" function="internal">
        <lane id=":-1302_1_0" index="0" speed="13.90" length="11.10" width="3.50" shape="251.41,217.10 240.34,217.81"/>
    </edge>
    <edge id=":-1302_2" function="internal">
        <lane id=":-1302_2_0" index="0" speed="13.90" length="5.31" width="3.50" shape="251.41,217.10 248.47,216.81 246.48,215.56"/>
    </edge>
    <edge id=":-1302_3" function="internal">
        <lane id=":-1302_3_0" index="0" speed="13.90" length="2.63" width="3.50" shape="251.41,217.10 249.99,216.31 249.46,215.46"/>
    </edge>
    <edge id=":-1302_16" function="internal">
        <lane id=":-1302_16_0" index="0" speed="13.90" length="7.17" width="3.50" shape="246.48,215.56 246.19,215.38 244.60,212.82 243.67,209.11"/>
    </edge>
    <edge id=":-1302_17" function="internal">
        <lane id=":-1302_17_0" index="0" speed="13.90" length="2.63" width="3.50" shape="249.46,215.46 249.84,214.52 251.10,213.51"/>
    </edge>
    <edge id=":-1302_4" function="internal">
        <lane id=":-1302_4_0" index="0" speed="13.90" length="6.92" width="3.50" shape="247.24,208.62 247.75,210.86 248.56,212.42 249.68,213.31 251.10,213.51"/>
    </edge>
    <edge id=":-1302_5" function="internal">
        <lane id=":-1302_5_0" index="0" speed="13.90" length="14.39" width="3.50" shape="247.24,208.62 247.74,212.26 248.09,215.81 248.09,219.34 247.56,222.93"/>
    </edge>
    <edge id=":-1302_6" function="internal">
        <lane id=":-1302_6_0" index="0" speed="13.90" length="13.36" width="3.50" shape="247.24,208.62 247.26,212.48 246.11,215.30 243.81,217.08 240.34,217.81"/>
    </edge>
    <edge id=":-1302_7" function="internal">
        <lane id=":-1302_7_0" index="0" speed="13.90" length="5.26" width="3.50" shape="247.24,208.62 246.53,210.08 245.70,210.65 244.75,210.33 243.67,209.11"/>
    </edge>
    <edge id=":-1302_8" function="internal">
        <lane id=":-1302_8_0" index="0" speed="13.90" length="7.19" width="3.50" shape="240.15,214.21 241.94,213.81 243.13,212.83 243.70,211.26 243.67,209.11"/>
    </edge>
    <edge id=":-1302_9" function="internal">
        <lane id=":-1302_9_0" index="0" speed="13.90" length="10.98" width="3.50" shape="240.15,214.21 251.10,213.51"/>
    </edge>
    <edge id=":-1302_10" function="internal">
        <lane id=":-1302_10_0" index="0" speed="13.90" length="6.22" width="3.50" shape="240.15,214.21 244.21,214.57 246.04,215.69"/>
    </edge>
    <edge id=":-1302_11" function="internal">
        <lane id=":-1302_11_0" index="0" speed="13.90" length="2.63" width="3.50" shape="240.15,214.21 241.55,215.04 242.04,215.92"/>
    </edge>
    <edge id=":-1302_18" function="internal">
        <lane id=":-1302_18_0" index="0" speed="13.90" length="7.89" width="3.50" shape="246.04,215.69 246.80,216.14 247.91,218.93 247.56,222.93"/>
    </edge>
    <edge id=":-1302_19" function="internal">
        <lane id=":-1302_19_0" index="0" speed="13.90" length="2.63" width="3.50" shape="242.04,215.92 241.64,216.84 240.34,217.81"/>
    </edge>
    <edge id=":-1302_12" function="internal">
        <lane id=":-1302_12_0" index="0" speed="13.90" length="7.01" width="3.50" shape="244.06,222.10 244.23,220.13 243.66,218.76 242.37,217.98 240.34,217.81"/>
    </edge>
    <edge id=":-1302_13" function="internal">
        <lane id=":-1302_13_0" index="0" speed="13.90" length="13.09" width="3.50" shape="244.06,222.10 244.58,218.72 244.55,215.64 244.18,212.55 243.67,209.11"/>
    </edge>
    <edge id=":-1302_14" function="internal">
        <lane id=":-1302_14_0" index="0" speed="13.90" length="11.87" width="3.50" shape="244.06,222.10 245.22,218.51 246.78,215.88 248.74,214.21 251.10,213.51"/>
    </edge>
    <edge id=":-1302_15" function="internal">
        <lane id=":-1302_15_0" index="0" speed="13.90" length="5.26" width="3.50" shape="244.06,222.10 245.24,220.99 246.22,220.76 247.00,221.41 247.56,222.93"/>
    </edge>
    <edge id=":-1312_0" function="internal">
        <lane id=":-1312_0_0" index="0" speed="13.90" length="4.62" width="3.50" shape="115.91,303.84 114.75,303.44 113.67,303.44 112.65,303.82 111.71,304.61"/>
    </edge>
    <edge id=":-1312_1" function="internal">
        <lane id=":-1312_1_0" index="0" speed="13.90" length="9.12" width="3.50" shape="115.91,303.84 113.55,302.58 112.07,301.41 111.01,299.85 109.92,297.41"/>
    </edge>
    <edge id=":-1312_2" function="internal">
        <lane id=":-1312_2_0" index="0" speed="13.90" length="2.74" width="3.50" shape="115.91,303.84 115.11,302.43 115.11,301.43 115.19,301.36"/>
    </edge>
    <edge id=":-1312_9" function="internal">
        <lane id=":-1312_9_0" index="0" speed="13.90" length="2.52" width="3.50" shape="115.19,301.36 115.91,300.82 117.52,300.62"/>
    </edge>
    <edge id=":-1312_3" function="internal">
        <lane id=":-1312_3_0" index="0" speed="13.90" length="6.51" width="3.50" shape="113.24,296.03 114.02,297.78 114.78,298.89 115.84,299.72 117.52,300.62"/>
    </edge>
    <edge id=":-1312_4" function="internal">
        <lane id=":-1312_4_0" index="0" speed="13.90" length="4.62" width="3.50" shape="113.24,296.03 113.89,298.36 113.85,300.57"/>
    </edge>
    <edge id=":-1312_5" function="internal">
        <lane id=":-1312_5_0" index="0" speed="13.90" length="2.63" width="3.50" shape="113.24,296.03 112.93,297.63 112.27,298.39"/>
    </edge>
    <edge id=":-1312_10" function="internal">
        <lane id=":-1312_10_0" index="0" speed="13.90" length="4.62" width="3.50" shape="113.85,300.57 113.12,302.65 111.71,304.61"/>
    </edge>
    <edge id=":-1312_11" function="internal">
        <lane id=":-1312_11_0" index="0" speed="13.90" length="2.63" width="3.50" shape="112.27,298.39 111.27,298.32 109.92,297.41"/>
    </edge>
    <edge id=":-1312_6" function="internal">
        <lane id=":-1312_6_0" index="0" speed="13.90" length="5.12" width="3.50" shape="109.07,302.16 109.85,301.08 110.25,299.92 110.28,298.70 109.92,297.41"/>
    </edge>
    <edge id=":-1312_7" function="internal">
        <lane id=":-1312_7_0" index="0" speed="13.90" length="9.30" width="3.50" shape="109.07,302.16 110.97,300.59 113.01,299.81 115.19,299.82 117.52,300.62"/>
    </edge>
    <edge id=":-1312_8" function="internal">
        <lane id=":-1312_8_0" index="0" speed="13.90" length="5.26" width="3.50" shape="109.07,302.16 110.65,301.78 111.61,302.06 111.97,303.01 111.71,304.61"/>
    </edge>
    <edge id=":-1320_0" function="internal">
        <lane id=":-1320_0_0" index="0" speed="13.90" length="7.67" width="3.50" shape="209.29,352.56 207.27,351.51 205.85,350.86 204.38,350.34 202.20,349.67"/>
    </edge>
    <edge id=":-1320_1" function="internal">
        <lane id=":-1320_1_0" index="0" speed="13.90" length="5.11" width="3.50" shape="209.29,352.56 207.27,351.13 206.01,349.36 205.90,348.91"/>
    </edge>
    <edge id=":-1320_2" function="internal">
        <lane id=":-1320_2_0" index="0" speed="13.90" length="2.63" width="3.50" shape="209.29,352.56 208.51,351.14 208.53,350.13"/>
    </edge>
    <edge id=":-1320_9" function="internal">
        <lane id=":-1320_9_0" index="0" speed="13.90" length="4.20" width="3.50" shape="205.90,348.91 205.50,347.24 205.75,344.77"/>
    </edge>
    <edge id=":-1320_10" function="internal">
        <lane id=":-1320_10_0" index="0" speed="13.90" length="2.63" width="3.50" shape="208.53,350.13 209.35,349.55 210.96,349.38"/>
    </edge>
    <edge id=":-1320_3" function="internal">
        <lane id=":-1320_3_0" index="0" speed="13.90" length="4.51" width="3.50" shape="209.25,345.60 209.13,346.80 209.38,347.82 209.99,348.69 210.96,349.38"/>
    </edge>
    <edge id=":-1320_4" function="internal">
        <lane id=":-1320_4_0" index="0" speed="13.90" length="9.40" width="3.50" shape="209.25,345.60 208.30,348.02 206.80,349.50 204.77,350.05 202.20,349.67"/>
    </edge>
    <edge id=":-1320_5" function="internal">
        <lane id=":-1320_5_0" index="0" speed="13.90" length="5.26" width="3.50" shape="209.25,345.60 208.06,346.71 207.08,346.94 206.31,346.29 205.75,344.77"/>
    </edge>
    <edge id=":-1320_6" function="internal">
        <lane id=":-1320_6_0" index="0" speed="13.90" length="3.35" width="3.50" shape="203.24,346.22 204.15,346.36 204.88,346.16 205.41,345.63 205.75,344.77"/>
    </edge>
    <edge id=":-1320_7" function="internal">
        <lane id=":-1320_7_0" index="0" speed="13.90" length="8.37" width="3.50" shape="203.24,346.22 205.61,346.95 207.21,347.52 208.76,348.23 210.96,349.38"/>
    </edge>
    <edge id=":-1320_8" function="internal">
        <lane id=":-1320_8_0" index="0" speed="13.90" length="2.63" width="3.50" shape="203.24,346.22 204.27,347.47 204.44,348.46"/>
    </edge>
    <edge id=":-1320_11" function="internal">
        <lane id=":-1320_11_0" index="0" speed="13.90" length="2.63" width="3.50" shape="204.44,348.46 203.75,349.20 202.20,349.67"/>
    </edge>
    <edge id=":-460_0" function="internal">