<?xml version='1.0' encoding='UTF-8'?>
<nodes>
  <node id="-720" x="13.963351" y="-5.672665" shape="19.245970,-4.962501 19.249266,-4.951028 19.245438,-4.939721 16.041495,-0.540442 16.033688,-0.534047 9.674476,2.391773 9.664586,2.393545 9.655082,2.390284 6.500848,-1.495630 6.496471,-1.506317 7.866609,-8.376803 7.871944,-8.386893 15.370998,-10.815283 15.382827,-10.815432 15.392671,-10.808873 19.245970,-4.962501 19.245970,-4.962501"/>
  <node id="-726" x="239.48044" y="-195.2564" shape="244.710712,-196.283364 244.716879,-196.275319 244.718310,-196.265283 244.351877,-193.083332 244.348203,-193.073884 244.340368,-193.067451 237.981244,-190.141441 237.969741,-190.139858 237.959297,-190.144933 234.501385,-193.345907 234.495520,-193.355929 234.496212,-193.367519 236.923509,-199.933205 236.930109,-199.942149 239.165383,-200.581682 239.176498,-200.581643 244.710712,-196.283364 244.710712,-196.283364"/>
  <node id="-708" x="28.973327" y="-8.189265" shape="34.077461,-9.724914 34.085039,-9.716198 33.844790,-6.017036 33.840738,-6.006220 27.473984,-3.074349 27.462481,-3.072766 27.452037,-3.077841 23.994217,-6.278915 23.988353,-6.288937 23.989045,-6.300528 26.416531,-12.866143 26.423608,-12.875442 28.137736,-13.458203 28.149416,-13.458562 34.077461,-9.724914 34.077461,-9.724914"/>
  <node id="-1270" x="336.58867" y="-291.94191" shape="343.765267,-295.108430 343.771737,-295.098493 343.771443,-295.086640 341.920947,-291.901188 337.278772,-286.656632 337.268883,-286.650547 337.257279,-286.650981 334.255484,-289.306261 333.785984,-289.812433 329.552962,-295.389983 329.548929,-295.400872 329.551626,-295.412166 335.132845,-299.649761 335.143455,-299.653775 338.366496,-299.583643 338.377302,-299.580189 343.765267,-295.108430 343.765267,-295.108430"/>
  <node id="-1272" x="337.46489" y="-102.25131" shape="341.887886,-105.234600 341.891599,-105.224168 341.015031,-98.275521 338.584569,-94.492350 338.577178,-94.485531 338.567402,-94.483171 331.921757,-96.701168 331.912197,-96.707998 330.656208,-98.352264 330.652133,-98.363284 330.259725,-105.352276 330.262606,-105.363792 330.271507,-105.371646 334.824842,-106.886936 334.835138,-106.887559 341.695055,-105.494165 341.704872,-105.489043 341.887886,-105.234600 341.887886,-105.234600"/>
  <node id="-1292" x="79.882497" y="-463.34524" shape="84.314065,-460.381497 84.311217,-460.370484 84.302823,-460.362805 77.535038,-458.559863 77.523547,-458.560222 76.170612,-459.513486 76.163518,-459.522533 75.589720,-466.504744 75.591473,-466.514716 77.186209,-467.948358 77.195210,-467.952994 84.077758,-466.633124 84.087859,-466.627890 84.093471,-466.617995 84.314065,-460.381497 84.314065,-460.381497"/>
  <node id="-1312" x="231.71507" y="-599.53883" shape="236.769776,-597.847573 236.771178,-597.837665 236.767606,-597.828318 233.073834,-594.382158 233.065042,-594.377380 233.055036,-594.377459 226.788152,-597.505145 226.780493,-597.511870 226.382467,-599.686243 226.383254,-599.696405 231.144806,-604.838377 231.155049,-604.844288 234.071007,-604.324662 234.081512,-604.319233 236.769776,-597.847573 236.769776,-597.847573"/>
  <node id="-1258" x="238.5644" y="-321.36334"/>
  <node id="-1256" x="246.29628" y="-304.56045" shape="251.414704,-303.073126 251.416350,-303.061871 250.129709,-300.850785 250.121424,-300.842991 243.137631,-300.267044 243.126054,-300.269620 241.314916,-302.652451 241.310867,-302.663599 243.739265,-309.237209 243.746270,-309.246456 243.757230,-309.250259 248.455003,-309.437026 248.466229,-309.434106 248.473947,-309.425444 251.414704,-303.073126 251.414704,-303.073126"/>
  <node id="-1198" x="263.3352" y="-465.18993" shape="268.621957,-463.184984 268.623562,-463.173351 268.618360,-463.162822 263.734495,-459.710452 263.723607,-459.706795 263.712503,-459.709731 257.927503,-464.078150 257.920720,-464.087386 257.920119,-464.098828 261.449747,-470.143180 261.458337,-470.151112 261.469894,-470.152885 265.656312,-469.544198 265.666908,-469.539187 268.621957,-463.184984 268.621957,-463.184984"/>
  <node id="-1254" x="245.50162" y="-324.5749" shape="250.482177,-326.483902 250.486878,-326.473431 248.058648,-319.898148 248.051643,-319.888901 248.040683,-319.885099 243.342911,-319.698318 243.331684,-319.701238 243.323967,-319.709900 240.383191,-326.062209 240.381612,-326.073891 241.228512,-327.768670 241.236659,-327.777190 248.089246,-329.234792 248.100686,-329.233856 250.482177,-326.483902 250.482177,-326.483902"/>
  <node id="-106" x="248.92204" y="-121.84006"/>
  <node id="-104" x="241.66582" y="-132.81822"/>
  <node id="-798" x="166.67353" y="-471.36587" shape="171.638585,-473.318031 171.640152,-473.306729 169.275693,-466.714080 168.009729,-463.674127 168.002414,-463.665211 167.991392,-463.661817 161.270281,-465.638540 161.260656,-465.644812 159.496118,-468.196864 159.492589,-468.207339 159.830871,-475.201026 159.834874,-475.212095 159.844410,-475.218995 164.864129,-476.384593 164.875928,-476.383741 171.396221,-473.837021 171.405224,-473.830010 171.638585,-473.318031 171.638585,-473.318031"/>
  <node id="-792" x="193.83412" y="-541.65796" shape="201.618025,-542.640852 201.618696,-542.629166 199.292835,-536.024770 199.286034,-536.015461 199.275225,-536.011453 195.984356,-536.779793 189.298522,-538.858183 189.288897,-538.864719 188.625617,-540.504031 188.624584,-540.515620 191.991358,-546.659423 194.287129,-549.482780 194.297060,-549.489365 194.308973,-549.489134 200.374995,-545.987781 200.382976,-545.979219 201.618025,-542.640852 201.618025,-542.640852"/>
  <node id="-94" x="516.88407" y="-696.6426"/>
  <node id="-716" x="15.427825" y="6.52284" shape="20.406941,4.612504 20.412805,4.622526 20.412113,4.634117 17.984608,11.199726 17.978021,11.208660 16.741103,11.693589 16.730050,11.694607 10.485588,8.519009 10.478050,8.512329 10.474723,8.502823 10.556326,4.351521 10.559053,4.341826 10.566159,4.334689 16.927174,1.407925 16.938677,1.406343 16.949120,1.411418 20.406941,4.612504 20.406941,4.612504"/>
  <node id="-738" x="225.37325" y="-194.69567" shape="230.491648,-193.208255 230.493257,-193.196755 230.488206,-193.186300 227.294751,-189.720853 227.284742,-189.714966 227.273150,-189.715632 220.702112,-192.128401 220.692756,-192.135516 220.356808,-192.879716 220.355339,-192.891377 222.899401,-199.416948 222.906496,-199.426019 222.917417,-199.429673 227.532237,-199.572214 227.543362,-199.569240 227.551004,-199.560625 230.491648,-193.208255 230.491648,-193.208255"/>
  <node id="-732" x="233.10476" y="-177.89268" shape="238.223154,-176.405250 238.224782,-176.393877 238.219883,-176.383484 235.152321,-172.968287 235.142512,-172.962304 235.131029,-172.962707 228.500604,-175.207136 228.491034,-175.214056 228.121235,-175.988266 228.119523,-175.999952 230.547842,-182.569492 230.554847,-182.578739 230.565807,-182.582541 235.263584,-182.769211 235.274811,-182.766291 235.282527,-182.757629 238.223154,-176.405250 238.223154,-176.405250"/>
  <node id="-1266" x="255.87428" y="-314.96437" shape="260.262947,-311.939473 260.261527,-311.929505 260.255430,-311.921493 257.793526,-309.987416 257.784298,-309.983389 257.774277,-309.984369 251.203192,-312.397010 251.193916,-312.404013 251.190101,-312.414991 251.002683,-317.134256 251.005616,-317.145502 251.014307,-317.153218 257.373370,-320.079361 257.384432,-320.081008 259.464391,-318.910091 259.472209,-318.902094 260.262947,-311.939473 260.262947,-311.939473"/>
  <node id="-1260" x="235.92366" y="-314.17099" shape="240.795255,-312.001099 240.792322,-311.989852 240.783631,-311.982136 234.424564,-309.056001 234.413005,-309.054427 232.016425,-310.539331 232.008737,-310.548104 231.803733,-317.552794 231.806742,-317.563939 234.005078,-319.148445 234.015994,-319.152199 240.594745,-316.738355 240.604020,-316.731353 240.607836,-316.720375 240.795255,-312.001099 240.795255,-312.001099"/>
  <node id="-1186" x="503.43291" y="-582.99924" shape="509.681306,-587.741385 509.689736,-587.733505 509.692409,-587.722279 504.957432,-577.893456 504.949686,-577.884977 504.938553,-577.882157 498.572531,-580.811293 498.564150,-580.818522 496.309940,-586.274330 496.308835,-586.285995 496.314453,-586.296277 501.783912,-590.668087 501.794252,-590.672348 503.395109,-590.845281 503.406120,-590.843326 509.681306,-587.741385 509.681306,-587.741385"/>
  <node id="-1320" x="183.05146" y="-506.08957" shape="187.769014,-508.581064 187.771672,-508.570189 186.154381,-501.755717 186.149700,-501.746861 184.292583,-500.901247 184.282717,-500.899519 178.081432,-504.163636 178.073166,-504.171805 178.070838,-504.183191 180.827596,-510.933086 180.834927,-510.942103 180.846034,-510.945522 187.557608,-508.936503 187.567005,-508.930418 187.769014,-508.581064 187.769014,-508.581064"/>
  <node id="-460" x="93.35396" y="-572.65472"/>
  <node id="-462" x="109.86871" y="-566.70996"/>
  <node id="-1302" x="316.50379" y="-465.40535" shape="323.758050,-463.735567 323.756241,-463.724145 323.748413,-463.715633 320.344727,-461.703668 313.362158,-461.099477 313.351293,-461.101616 308.843993,-463.419248 308.835852,-463.426975 308.833156,-463.437870 310.438847,-470.255094 310.443517,-470.263963 312.633746,-472.230225 312.644142,-472.235121 319.636741,-472.596665 319.648140,-472.593796 322.797657,-470.685061 322.805447,-470.676346 323.758050,-463.735567 323.758050,-463.735567"/>
  <node id="-712" x="29.534512" y="5.962571" shape="34.786304,6.895105 34.784865,6.906389 29.314060,11.288151 29.302979,11.292486 27.370172,10.838524 27.359925,10.832476 24.416161,4.474993 24.414553,4.463493 24.419604,4.453038 27.613161,0.987696 27.623170,0.981809 27.634762,0.982476 34.205728,3.395443 34.214850,3.402239 34.786304,6.895105 34.786304,6.895105"/>
  <node id="Custom27" x="301.60173" y="-542.278042"/>
  <node id="Custom28" x="-28.245809999999835" y="744.59086"/>
  <node id="Custom29" x="271.58913" y="-568.95145"/>
  <node id="Custom30" x="111.792101" y="-478.849315"/>
  <node id="Custom31" x="-54.718216" y="742.22645"/>
  <node id="Custom32" x="31.76649300000001" y="-544.47345"/>
  <node id="Custom33" x="163.369673" y="-438.813472"/>
</nodes>
