<?xml version="1.0" encoding="UTF-8"?>

<!-- generated on Thu Jul 13 09:43:27 2017 by SUMO duarouter Version 0.30.0
<?xml version="1.0" encoding="UTF-8"?>

<configuration xmlns:xsi="http://www.w3.org/2001/XMLSchema-instance" xsi:noNamespaceSchemaLocation="http://sumo.dlr.de/xsd/duarouterConfiguration.xsd">

    <input>
        <net-file value="/Users/fabien/develop/webots-master/projects/automobile/worlds/village_net/sumo.net.xml"/>
        <trip-files value="/Users/fabien/develop/webots-master/projects/automobile/worlds/village_net/sumo.trip.xml"/>
    </input>

    <output>
        <output-file value="/Users/fabien/develop/webots-master/projects/automobile/worlds/village_net/sumo.rou.xml"/>
    </output>

    <processing>
        <ignore-errors value="true"/>
    </processing>

</configuration>
-->

<routes xmlns:xsi="http://www.w3.org/2001/XMLSchema-instance" xsi:noNamespaceSchemaLocation="http://sumo.dlr.de/xsd/routes_file.xsd">
    <vehicle id="0" depart="0.00">
        <route edges="--2086_2 -2058 -2054"/>
    </vehicle>
    <vehicle id="1" depart="2.00">
        <route edges="-2050 -2048_1 -2048_2 -2046 -2088_4 -2088_5 -2086_1 -2058 --2058"/>
    </vehicle>
    <vehicle id="2" depart="4.00">
        <route edges="--1980_1 -1980_1 -1980_2 --2086_2 --2086_1 -2088_3 -2088_1 -2088_2 --2046 -2048_3 -2048_1 --1978 --1976"/>
    </vehicle>
    <vehicle id="3" depart="6.00">
        <route edges="-1966 -1982 -1970_1 -1970_2 --2058 -2086_2 --1980_2"/>
    </vehicle>
    <vehicle id="4" depart="8.00">
        <route edges="--2042_1 -2044_4 -2050 -2048_1 -2048_2 -2046 -2088_4 -2088_5 -2086_1 -2086_2 --2086_2"/>
    </vehicle>
    <vehicle id="5" depart="10.00">
        <route edges="-2056 -1970_1 -1970_2 -2054"/>
    </vehicle>
    <vehicle id="6" depart="12.00">
        <route edges="-2058 --2058 --2086_1 -2088_3 -2088_1 -2088_2 --2046 -2048_3 -2048_1 --1978 --1976 --1984"/>
    </vehicle>
    <vehicle id="7" depart="14.00">
        <route edges="--2206 --2092 -2088_2 -2088_4 -2088_5 -2086_1 -2058"/>
    </vehicle>
    <vehicle id="8" depart="16.00">
        <route edges="-2058 --2058 --2086_1 -2088_3 -2088_1 -2088_2 --2046 -2048_3 -2048_1 --1978 -1978"/>
    </vehicle>
    <vehicle id="9" depart="18.00">
        <route edges="--1970_2 -1970_2 --2058 --2086_1 -2088_3 -2088_1 -2088_2 --2046 -2048_3 --2050 -2050"/>
    </vehicle>
    <vehicle id="10" depart="20.00">
        <route edges="--2042_3 -2042_3 --2210"/>
    </vehicle>
    <vehicle id="11" depart="22.00">
        <route edges="--1970_2 -1970_2 -2054"/>
    </vehicle>
    <vehicle id="12" depart="24.00">
        <route edges="-1970_1 -1970_2 --2058 --2086_1 -2088_3 -2088_1 -2088_2 -2088_4 -2088_5"/>
    </vehicle>
    <vehicle id="13" depart="26.00">
        <route edges="-2206 -2044_1 -2044_3 -2044_4 -2050 --2050"/>
    </vehicle>
    <vehicle id="14" depart="28.00">
        <route edges="--2058 --2086_1 -2088_3 -2088_1 -2092 -2206"/>
    </vehicle>
    <vehicle id="15" depart="30.00">
        <route edges="-1980_1 -1980_2 --2086_2 -2058 --1970_2 -2094"/>
    </vehicle>
    <vehicle id="16" depart="32.00">
        <route edges="--2042_1 -2044_4 -2050 -2048_1 -2048_2 -2046 -2088_4 -2088_5 -2086_1 -2086_2 --1980_2 --1980_1 -1966"/>
    </vehicle>
    <vehicle id="17" depart="34.00">
        <route edges="-2044_4"/>
    </vehicle>
    <vehicle id="18" depart="36.00">
        <route edges="--2054 --2058 -2086_2 --1980_2 -2018"/>
    </vehicle>
    <vehicle id="19" depart="38.00">
        <route edges="-2208 --2208 -1982 -2052 -1974 -1972"/>
    </vehicle>
    <vehicle id="20" depart="40.00">
        <route edges="--2208 -1982 -1970_1 -1970_2 --2058 --2086_1 -2088_3"/>
    </vehicle>
    <vehicle id="21" depart="42.00">
        <route edges="-2044_1 -2044_3 -2044_4 -2044_2 --2206 -2206"/>
    </vehicle>
    <vehicle id="22" depart="44.00">
        <route edges="-2042_1 -2042_3"/>
    </vehicle>
    <vehicle id="23" depart="46.00">
        <route edges="--2092 -2088_2 --2046 -2048_3 -2048_1 --1978 --1976 --1984 -2090"/>
    </vehicle>
    <vehicle id="24" depart="48.00">
        <route edges="-2046 -2088_4 -2088_5"/>
    </vehicle>
    <vehicle id="25" depart="50.00">
        <route edges="--1980_1 -1980_1 -1980_2 --2086_2 --2086_1 -2088_3 -2088_1"/>
    </vehicle>
    <vehicle id="26" depart="52.00">
        <route edges="-2042_1 -2042_3 --2210 --2086_2 -2058 --1970_2"/>
    </vehicle>
    <vehicle id="27" depart="54.00">
        <route edges="--2042_3 -2042_3 -2042_2 -2088_5 -2088_3 -2088_1 -2088_2"/>
    </vehicle>
    <vehicle id="28" depart="56.00">
        <route edges="-2044_4 -2050 -2048_1 -2048_2 -2046"/>
    </vehicle>
    <vehicle id="29" depart="58.00">
        <route edges="-2048_1 --1978 --1976"/>
    </vehicle>
    <vehicle id="30" depart="60.00">
        <route edges="--2052 -1970_1 -1970_2 --2058 --2086_1 -2088_3 -2088_1 -2088_2 -2088_4 -2088_5"/>
    </vehicle>
    <vehicle id="31" depart="62.00">
        <route edges="--1974 --2052 --1982 --1966 -1980_1"/>
    </vehicle>
    <vehicle id="32" depart="64.00">
        <route edges="--2050 -2050 -2048_1 -2048_2 -2046 -2088_4 --2042_2 -2042_2"/>
    </vehicle>
    <vehicle id="33" depart="66.00">
        <route edges="--2086_1 -2086_1 -2058 --1970_2"/>
    </vehicle>
    <vehicle id="34" depart="68.00">
        <route edges="--2086_1 -2086_1 -2086_2"/>
    </vehicle>
    <vehicle id="35" depart="70.00">
        <route edges="--2046 -2046 -2088_4 -2088_5 -2086_1 -2058 --1970_2"/>
    </vehicle>
    <vehicle id="36" depart="72.00">
        <route edges="--1976 -1976 -1978 -2048_2 -2046 -2088_4 -2088_5 -2086_1"/>
    </vehicle>
    <vehicle id="37" depart="74.00">
        <route edges="-1980_2 --2086_2 -2058 --1970_2 --1970_1 --1982 -2208"/>
    </vehicle>
    <vehicle id="38" depart="76.00">
        <route edges="--2092 -2088_2 --2046 -2048_3 --2050 -2044_2 -2044_1 -2044_3 -2044_4"/>
    </vehicle>
    <vehicle id="39" depart="78.00">
        <route edges="--2042_3 -1984 -1976 -1978 -2048_2 -2048_3 --2050 -2044_2"/>
    </vehicle>
    <vehicle id="40" depart="80.00">
        <route edges="-2092 --2092 -2088_2 -2088_4 -2088_5 -2086_1 -2086_2 --1980_2 -1980_2"/>
    </vehicle>
    <vehicle id="41" depart="82.00">
        <route edges="-2088_3 -2088_1 -2088_2 -2088_4 --2042_2 --2210"/>
    </vehicle>
    <vehicle id="42" depart="84.00">
        <route edges="-1984 -1976 -1978 -2048_2 -2046 -2088_4 -2088_5 -2086_1 -2058"/>
    </vehicle>
    <vehicle id="43" depart="86.00">
        <route edges="-2206 -2044_1 -2044_3 -2044_4 -2050 -2048_1 -2048_2 -2046 -2088_4 -2088_5 -2086_1 -2058 --1970_2 -1970_2"/>
    </vehicle>
    <vehicle id="44" depart="88.00">
        <route edges="-2042_2 -2088_5 -2088_3 -2088_1 -2088_2 --2046 -2048_3 --2050 -2044_2 -2044_1 -2044_3 -2044_4"/>
    </vehicle>
    <vehicle id="45" depart="90.00">
        <route edges="-1982 -1970_1 -1970_2 --2058 --2086_1 -2088_3 -2088_1 -2088_2 --2046 -2048_3 -2048_1 --1978"/>
    </vehicle>
    <vehicle id="46" depart="92.00">
        <route edges="-2086_2 --2086_2 -2058 --1970_2 --1970_1 --1982"/>
    </vehicle>
    <vehicle id="47" depart="94.00">
        <route edges="--1966 -1966 -1982 -1970_1 -1970_2 -2054"/>
    </vehicle>
    <vehicle id="48" depart="96.00">
        <route edges="-2208 --2208"/>
    </vehicle>
    <vehicle id="49" depart="98.00">
        <route edges="-1970_1 -1970_2 --2058 --2086_1 -2088_3 -2088_1 -2088_2 --2046 -2048_3 -2048_1 --1978 -1978"/>
    </vehicle>
    <vehicle id="50" depart="100.00">
        <route edges="-2092 --2208 -1982 --1982"/>
    </vehicle>
    <vehicle id="51" depart="102.00">
        <route edges="--1966 -1980_1 -1980_2 --2086_2 --2086_1 -2088_3 -2088_1 -2088_2 --2046 -2048_3 --2050 -2044_2 -2044_1"/>
    </vehicle>
    <vehicle id="52" depart="104.00">
        <route edges="--1978"/>
    </vehicle>
    <vehicle id="53" depart="106.00">
        <route edges="-1976 -1978 -2048_2 -2046 -2088_4 -2088_5 -2086_1 -2058 --1970_2 --1970_1 -2052"/>
    </vehicle>
    <vehicle id="54" depart="108.00">
        <route edges="-1976 -1978 -2048_2"/>
    </vehicle>
    <vehicle id="55" depart="110.00">
        <route edges="-2046 -2088_4 -2088_5 -2086_1 -2058 --1970_2 --1970_1 -2052 -1974"/>
    </vehicle>
    <vehicle id="56" depart="112.00">
        <route edges="-2058 --2058 --2086_1 -2088_3 -2088_1 -2092"/>
    </vehicle>
    <vehicle id="57" depart="114.00">
        <route edges="--1970_2 --1970_1 --1982 -2208 --2092"/>
    </vehicle>
    <vehicle id="58" depart="116.00">
        <route edges="-2018 --1980_2 --1980_1 -1966"/>
    </vehicle>
    <vehicle id="59" depart="118.00">
        <route edges="--1982 -1982 -1970_1 -1970_2 --2058 -2058"/>
    </vehicle>
    <vehicle id="60" depart="120.00">
        <route edges="--2206 --2208 -2208"/>
    </vehicle>
    <vehicle id="61" depart="122.00">
        <route edges="-1978 -2048_2 -2046 -2088_4 -2088_5 -2086_1 -2058 --1970_2 --1970_1 --1982 -1982"/>
    </vehicle>
    <vehicle id="62" depart="124.00">
        <route edges="--1976 -1976 -1978 -2048_2 -2046 -2088_4 --2042_2"/>
    </vehicle>
    <vehicle id="63" depart="126.00">
        <route edges="-1966 -2208 --2208"/>
    </vehicle>
    <vehicle id="64" depart="128.00">
        <route edges="-1982 -1970_1 -1970_2 --2058 -2086_2 -2210 --2042_3 -2042_3"/>
    </vehicle>
    <vehicle id="65" depart="130.00">
        <route edges="-2058 --2058 --2086_1 -2088_3 -2088_1 -2088_2 --2046 -2048_3 --2050 -2044_2"/>
    </vehicle>
    <vehicle id="66" depart="132.00">
        <route edges="-2086_1 -2058 --1970_2 --1970_1 -2052 -1974"/>
    </vehicle>
    <vehicle id="67" depart="134.00">
        <route edges="--1976 -1976 -1978 -2048_2 -2046 -2088_4 -2088_5 -2088_3 -2088_1 -2092 --2208"/>
    </vehicle>
    <vehicle id="68" depart="136.00">
        <route edges="--2054 --2058 --2086_1 -2088_3 -2088_1 -2092"/>
    </vehicle>
    <vehicle id="69" depart="138.00">
        <route edges="-2086_1 --2086_1 -2088_3 -2088_1 -2088_2 --2046"/>
    </vehicle>
    <vehicle id="70" depart="140.00">
        <route edges="-2018 --2086_2 --2086_1 -2088_3 -2088_1 -2088_2 --2046 -2048_3"/>
    </vehicle>
    <vehicle id="71" depart="142.00">
        <route edges="-2088_5 -2088_3 -2088_1 -2088_2 --2046"/>
    </vehicle>
    <vehicle id="72" depart="144.00">
        <route edges="-2058 --1970_2 --1970_1 --1982 -2208 --2208"/>
    </vehicle>
    <vehicle id="73" depart="146.00">
        <route edges="--2208 -1982 -2052"/>
    </vehicle>
    <vehicle id="74" depart="148.00">
        <route edges="--1972 --1974 --2052 -1970_1 -1970_2 --2058 --2086_1 -2088_3 -2088_1 -2088_2"/>
    </vehicle>
    <vehicle id="75" depart="150.00">
        <route edges="--2086_2 -2086_2 --1980_2 --1980_1 -1966"/>
    </vehicle>
    <vehicle id="76" depart="152.00">
        <route edges="-2042_1 -2042_3 -2042_2 -2088_5 -2088_3"/>
    </vehicle>
    <vehicle id="77" depart="154.00">
        <route edges="--2042_1 -2044_4 -2050 -2048_1 -2048_2"/>
    </vehicle>
    <vehicle id="78" depart="156.00">
        <route edges="--2042_3 -1984 -1976 -1978 -2048_2 -2048_3 --2050 -2044_2 -2044_1 -2044_3 -2042_1"/>
    </vehicle>
    <vehicle id="79" depart="158.00">
        <route edges="--1970_2 -1970_2 --2058 --2086_1 -2088_3 -2088_1 -2088_2 --2046 -2048_3 --2050"/>
    </vehicle>
    <vehicle id="80" depart="160.00">
        <route edges="--2018 -1980_2 --2086_2 --2086_1 -2088_3 -2088_1 -2088_2 --2046 -2048_3 -2048_1 --1978 --1976 -1976"/>
    </vehicle>
    <vehicle id="81" depart="162.00">
        <route edges="--1976 -1976 -1978 -2048_2 -2046 -2088_4 --2042_2 -2042_2"/>
    </vehicle>
    <vehicle id="82" depart="164.00">
        <route edges="--1972 --1974 --2052 -1970_1 -1970_2 --2058 --2086_1"/>
    </vehicle>
    <vehicle id="83" depart="166.00">
        <route edges="-2052 --2052 -1970_1 -1970_2 --2058 --2086_1 -2088_3 -2088_1 -2088_2 --2046"/>
    </vehicle>
    <vehicle id="84" depart="168.00">
        <route edges="--2208 -1982 -1970_1 -1970_2 --2058 --2086_1 -2088_3 -2088_1 -2088_2 --2046 -2048_3 -2048_1 --1978 --1976 -1976"/>
    </vehicle>
    <vehicle id="85" depart="170.00">
        <route edges="--2050 -2050 -2048_1 -2048_2 -2046 -2088_4 -2088_5 -2086_1 -2086_2 --2018"/>
    </vehicle>
    <vehicle id="86" depart="172.00">
        <route edges="--2210 --2086_2 --2086_1 -2088_3 -2088_1 -2088_2 --2046 -2046"/>
    </vehicle>
    <vehicle id="87" depart="174.00">
        <route edges="-2056 -2052 --2052"/>
    </vehicle>
    <vehicle id="88" depart="176.00">
        <route edges="-1984 -1976 -1978 -2048_2 -2046 -2088_4 -2088_5 -2086_1 -2058 --1970_2 --1970_1 --1982 -2208"/>
    </vehicle>
    <vehicle id="89" depart="178.00">
        <route edges="-1976 -1978 -2048_2 -2046 -2088_4 -2088_5 -2086_1 -2058 --1970_2 --1970_1 -1970_1"/>
    </vehicle>
    <vehicle id="90" depart="180.00">
        <route edges="--2052 --1982 --1966 -1980_1"/>
    </vehicle>
    <vehicle id="91" depart="182.00">
        <route edges="-1976 -1978 -2048_2 -2046 -2088_4 -2088_5 -2086_1 -2058 --1970_2 --1970_1 -2052"/>
    </vehicle>
    <vehicle id="92" depart="184.00">
        <route edges="--2092 -2088_2 --2046 -2048_3 --2050 -2044_2"/>
    </vehicle>
    <vehicle id="93" depart="186.00">
        <route edges="--2210 --2086_2 --2086_1"/>
    </vehicle>
    <vehicle id="94" depart="188.00">
        <route edges="--2018 --1980_1 -1966 -1982"/>
    </vehicle>
    <vehicle id="95" depart="190.00">
        <route edges="--1966 -1980_1 -1980_2 --2086_2 --2086_1 -2088_3"/>
    </vehicle>
    <vehicle id="96" depart="192.00">
        <route edges="-2058 --1970_2 --1970_1 -2052"/>
    </vehicle>
    <vehicle id="97" depart="194.00">
        <route edges="-2092 -2206 --2206"/>
    </vehicle>
    <vehicle id="98" depart="196.00">
        <route edges="--2050 -2050 -2048_1 -2048_2 -2046 -2088_4 -2088_5 -2086_1 -2058"/>
    </vehicle>
    <vehicle id="99" depart="198.00">
        <route edges="--2086_1 -2088_3 -2088_1 -2092"/>
    </vehicle>
    <vehicle id="100" depart="200.00">
        <route edges="--2042_2 -2042_2 -2088_5 -2088_3 -2088_1 -2088_2 --2046 -2048_3 --2050 -2044_2 -2044_1 -2044_3"/>
    </vehicle>
    <vehicle id="101" depart="202.00">
        <route edges="--2058 -2058 --1970_2 --1970_1 --2056"/>
    </vehicle>
    <vehicle id="102" depart="204.00">
        <route edges="-2018 --2086_2 -2058 --1970_2 --1970_1 --2056"/>
    </vehicle>
    <vehicle id="103" depart="206.00">
        <route edges="--1980_1 -1966 -1982 -2052 --2052"/>
    </vehicle>
    <vehicle id="104" depart="208.00">
        <route edges="-2050 -2048_1 -2048_2 -2046 -2088_4 -2088_5 -2086_1 -2086_2 --2018"/>
    </vehicle>
    <vehicle id="105" depart="210.00">
        <route edges="-2014 -2044_3 -2044_4 -2050 -2048_1 -2048_2"/>
    </vehicle>
    <vehicle id="106" depart="212.00">
        <route edges="-1982 --2056"/>
    </vehicle>
    <vehicle id="107" depart="214.00">
        <route edges="-2088_1 -2088_2 -2088_4 -2088_5 -2086_1 -2086_2 --1980_2 -2018"/>
    </vehicle>
    <vehicle id="108" depart="216.00">
        <route edges="-2092 --2208 -1982 -1970_1 -1970_2"/>
    </vehicle>
    <vehicle id="109" depart="218.00">
        <route edges="--2206 --2208 -1982 -1970_1 -1970_2 --2058"/>
    </vehicle>
    <vehicle id="110" depart="220.00">
        <route edges="--2042_3 -2042_3 --2210 --2086_2 -2058 --1970_2 --1970_1 -2052 -1974"/>
    </vehicle>
    <vehicle id="111" depart="222.00">
        <route edges="--1984 -2042_3 --2210 --2086_2 -2058 --2058"/>
    </vehicle>
    <vehicle id="112" depart="224.00">
        <route edges="--2058 --2086_1 -2088_3 -2088_1 -2092 --2208"/>
    </vehicle>
    <vehicle id="113" depart="226.00">
        <route edges="--2092 -2088_2 --2046 -2048_3 -2048_1 --1978 --1976 -1976"/>
    </vehicle>
    <vehicle id="114" depart="228.00">
        <route edges="-1970_2 --1970_2 --1970_1 --1982 -2208 --2208"/>
    </vehicle>
    <vehicle id="115" depart="230.00">
        <route edges="-2044_1 -2044_3 -2044_4 -2050 -2048_1 -2048_2 -2046 -2088_4 -2088_5 -2086_1 -2086_2 --1980_2 --1980_1 -1980_1"/>
    </vehicle>
    <vehicle id="116" depart="232.00">
        <route edges="-1978 -2048_2 -2048_3 --2050 -2050"/>
    </vehicle>
    <vehicle id="117" depart="234.00">
        <route edges="--2042_3 -2042_3 -2042_2 -2088_5 -2088_3 -2088_1 -2088_2"/>
    </vehicle>
    <vehicle id="118" depart="236.00">
        <route edges="--2052 -1970_1 -1970_2 --2058"/>
    </vehicle>
    <vehicle id="119" depart="238.00">
        <route edges="--1980_1 -1966 -1982 -2052 -1974 -1972"/>
    </vehicle>
    <vehicle id="120" depart="240.00">
        <route edges="--1978 -1978 -2048_2 -2046 -2088_4 -2088_5 -2088_3 -2088_1"/>
    </vehicle>
    <vehicle id="121" depart="242.00">
        <route edges="-2050 -2048_1 -2048_2 -2046 -2088_4 -2088_5 -2086_1 -2058 -2054"/>
    </vehicle>
    <vehicle id="122" depart="244.00">
        <route edges="--2046 -2046 -2088_4 -2088_5 -2086_1 -2058 -1968"/>
    </vehicle>
    <vehicle id="123" depart="246.00">
        <route edges="--1978 --1976 --1984 -2090"/>
    </vehicle>
    <vehicle id="124" depart="248.00">
        <route edges="--2058 -2058 -2054"/>
    </vehicle>
    <vehicle id="125" depart="250.00">
        <route edges="-1974 --1974 --2052 --1982 -1982"/>
    </vehicle>
    <vehicle id="126" depart="252.00">
        <route edges="-2014 -2044_3 -2044_4 -2050 -2048_1 --1978 --1976 --1984"/>
    </vehicle>
    <vehicle id="127" depart="254.00">
        <route edges="-2046 -2088_4 -2088_5 -2086_1 -2086_2 --2018"/>
    </vehicle>
    <vehicle id="128" depart="256.00">
        <route edges="-1966 -1982 -1970_1 -1970_2 --2058 --2086_1 -2088_3 -2088_1"/>
    </vehicle>
    <vehicle id="129" depart="258.00">
        <route edges="--1978 -1978 -2048_2 -2046 -2088_4 -2088_5 -2086_1 -2086_2 --1980_2 --1980_1 -1966"/>
    </vehicle>
    <vehicle id="130" depart="260.00">
        <route edges="-2042_1 -2042_3 --2210 --2086_2 -2086_2"/>
    </vehicle>
    <vehicle id="131" depart="262.00">
        <route edges="-2088_2 -2088_4 -2088_5 -2086_1 -2058 --1970_2 --1970_1 -2052"/>
    </vehicle>
    <vehicle id="132" depart="264.00">
        <route edges="-1980_1 -1980_2 --2086_2 --2086_1 -2088_3 -2088_1 -2088_2 --2046 -2048_3 -2048_1 -2048_2"/>
    </vehicle>
    <vehicle id="133" depart="266.00">
        <route edges="-1970_1 -1970_2 --2058 --2086_1 -2088_3 -2088_1 -2088_2 -2088_4 --2042_2"/>
    </vehicle>
    <vehicle id="134" depart="268.00">
        <route edges="-1982 -1970_1 -1970_2 --2058 -2086_2 --1980_2"/>
    </vehicle>
    <vehicle id="135" depart="270.00">
        <route edges="--2052 -1970_1 -1970_2 --2058 -2086_2 -2210 --2042_3 -2090"/>
    </vehicle>
    <vehicle id="136" depart="272.00">
        <route edges="-2050 -2048_1 -2048_2 -2046 -2088_4 -2088_5 -2086_1 -2086_2 --1980_2 -1980_2"/>
    </vehicle>
    <vehicle id="137" depart="274.00">
        <route edges="-1978 -2048_2 -2048_3 --2050 -2044_2 -2044_1 -2044_3"/>
    </vehicle>
    <vehicle id="138" depart="276.00">
        <route edges="--2086_2 --2086_1 -2088_3 -2088_1 -2088_2 --2046"/>
    </vehicle>
    <vehicle id="139" depart="278.00">
        <route edges="-2042_2 --2042_2"/>
    </vehicle>
    <vehicle id="140" depart="280.00">
        <route edges="-1976 -1978 -2048_2 -2046 -2088_4 -2088_5 -2088_3 -2088_1 -2092 --2208"/>
    </vehicle>
    <vehicle id="141" depart="282.00">
        <route edges="-2042_3 --2210 --2086_2 -2058 --1970_2 -2094"/>
    </vehicle>
    <vehicle id="142" depart="284.00">
        <route edges="--1970_2 -1970_2 --2058 -2086_2 -2210 --2042_3 -2042_3"/>
    </vehicle>
    <vehicle id="143" depart="286.00">
        <route edges="--2018 -1980_2 --2086_2 -2058 --1970_2 -1970_2"/>
    </vehicle>
    <vehicle id="144" depart="288.00">
        <route edges="-2092 --2208 -1982 -2052 -1974 --1974"/>
    </vehicle>
    <vehicle id="145" depart="290.00">
        <route edges="-2088_3 -2088_1 -2088_2 -2088_4 --2042_2 -2042_2"/>
    </vehicle>
    <vehicle id="146" depart="292.00">
        <route edges="--2206 --2092 -2088_2 -2088_4 -2088_5 -2086_1 --2086_1"/>
    </vehicle>
    <vehicle id="147" depart="294.00">
        <route edges="-2042_2 --2042_2 --2042_3 -1984"/>
    </vehicle>
    <vehicle id="148" depart="296.00">
        <route edges="--1974 --2052 --1982 -2208 -2206"/>
    </vehicle>
    <vehicle id="149" depart="298.00">
        <route edges="-2048_1 -2048_2 -2046 -2088_4 -2088_5 -2086_1 -2058 -1968"/>
    </vehicle>
    <vehicle id="150" depart="300.00">
        <route edges="-1970_1 --1970_1 --1982 -2208 --2208"/>
    </vehicle>
    <vehicle id="151" depart="302.00">
        <route edges="-2208 --2092 -2088_2 -2088_4 --2042_2 --2210"/>
    </vehicle>
    <vehicle id="152" depart="304.00">
        <route edges="-1978 -2048_2 -2046 -2088_4 -2088_5 -2086_1 -2086_2"/>
    </vehicle>
    <vehicle id="153" depart="306.00">
        <route edges="--2052 -1970_1 -1970_2 --2058 --2086_1 -2088_3 -2088_1 -2088_2 --2046 -2048_3 -2048_1 --1978 --1976 -1976"/>
    </vehicle>
    <vehicle id="154" depart="308.00">
        <route edges="-1978 -2048_2 -2046 -2088_4 --2042_2"/>
    </vehicle>
    <vehicle id="155" depart="310.00">
        <route edges="--1968 --2058 --2086_1"/>
    </vehicle>
    <vehicle id="156" depart="312.00">
        <route edges="-2088_5 -2086_1 -2058 --1970_2 --1970_1 -2052 -1974"/>
    </vehicle>
    <vehicle id="157" depart="314.00">
        <route edges="--2210 --2086_2 --2086_1 -2088_3 -2088_1 -2092 --2208"/>
    </vehicle>
    <vehicle id="158" depart="316.00">
        <route edges="--1984 -1984 -1976 -1978 -2048_2 -2048_3 --2050 -2044_2 -2044_1 -2044_3"/>
    </vehicle>
    <vehicle id="159" depart="318.00">
        <route edges="-1984 -1976 -1978 -2048_2 -2046 -2088_4 -2088_5 -2088_3 -2088_1 -2092 --2092"/>
    </vehicle>
    <vehicle id="160" depart="320.00">
        <route edges="-2048_2 -2048_3 -2048_1 --1978 --1976 --1984 -1984"/>
    </vehicle>
    <vehicle id="161" depart="322.00">
        <route edges="-2046 --2046 -2048_3 -2048_1 --1978 -1978"/>
    </vehicle>
    <vehicle id="162" depart="324.00">
        <route edges="-2058 --2058 -2086_2 --1980_2 --1980_1"/>
    </vehicle>
    <vehicle id="163" depart="326.00">
        <route edges="--1980_2 -1980_2 --2086_2 --2086_1 -2088_3 -2088_1 -2088_2 --2046 -2048_3 -2048_1"/>
    </vehicle>
    <vehicle id="164" depart="328.00">
        <route edges="--1974 --2052 -1970_1 -1970_2 --2058 --2086_1 -2088_3 -2088_1 -2088_2 --2046 -2048_3 --2050 -2044_2 -2044_1"/>
    </vehicle>
    <vehicle id="165" depart="330.00">
        <route edges="-1978 -2048_2 -2046 -2088_4 -2088_5 -2086_1 -2086_2 --1980_2"/>
    </vehicle>
    <vehicle id="166" depart="332.00">
        <route edges="--2094 -1970_2 --2058 --2086_1 -2088_3 -2088_1"/>
    </vehicle>
    <vehicle id="167" depart="334.00">
        <route edges="-2056 -1970_1 -1970_2 --2058 --2086_1 -2088_3 -2088_1 -2092"/>
    </vehicle>
    <vehicle id="168" depart="336.00">
        <route edges="-2086_1 -2058 -1968"/>
    </vehicle>
    <vehicle id="169" depart="338.00">
        <route edges="-2208 --2208 -1982 -2052 -1974 -1972"/>
    </vehicle>
    <vehicle id="170" depart="340.00">
        <route edges="-1980_2 --2086_2 --2086_1 -2088_3 -2088_1 -2092"/>
    </vehicle>
    <vehicle id="171" depart="342.00">
        <route edges="-2088_2 -2088_4 -2088_5 -2086_1"/>
    </vehicle>
    <vehicle id="172" depart="344.00">
        <route edges="--1976 -1976 -1978 -2048_2 -2046 -2088_4 -2088_5 -2088_3 -2088_1 -2092 --2208"/>
    </vehicle>
    <vehicle id="173" depart="346.00">
        <route edges="-2048_2 -2046 -2088_4 -2088_5 -2086_1 -2058 --1970_2 --1970_1"/>
    </vehicle>
    <vehicle id="174" depart="348.00">
        <route edges="-2042_2 -2088_5 -2088_3 -2088_1 -2088_2 --2046 -2048_3 --2050 -2044_2"/>
    </vehicle>
    <vehicle id="175" depart="350.00">
        <route edges="-2044_1 -2044_3 -2044_4 -2050 -2048_1 -2048_2 -2046 -2088_4 -2088_5 -2086_1 -2058 --1970_2 --1970_1 -2052 -1974 --1974"/>
    </vehicle>
    <vehicle id="176" depart="352.00">
        <route edges="-2088_4 -2088_5 -2088_3 -2088_1 -2088_2 --2046 -2048_3 -2048_1 --1978 --1976"/>
    </vehicle>
    <vehicle id="177" depart="354.00">
        <route edges="-2088_2 -2088_4 -2088_5 -2086_1 -2058 --2058"/>
    </vehicle>
    <vehicle id="178" depart="356.00">
        <route edges="-2086_1 --2086_1 -2088_3 -2088_1 -2088_2"/>
    </vehicle>
    <vehicle id="179" depart="358.00">
        <route edges="-1970_2 --1970_2 --1970_1 --2056"/>
    </vehicle>
    <vehicle id="180" depart="360.00">
        <route edges="--2018 -1980_2 --2086_2 -2058 --1970_2"/>
    </vehicle>
    <vehicle id="181" depart="362.00">
        <route edges="-2042_1 -2042_3 --2210 --1980_2 --1980_1"/>
    </vehicle>
    <vehicle id="182" depart="364.00">
        <route edges="-2046 --2046 -2048_3 -2048_1 --1978 --1976 --1984"/>
    </vehicle>
    <vehicle id="183" depart="366.00">
        <route edges="--2210 --2086_2 -2058 --1970_2 -1970_2"/>
    </vehicle>
    <vehicle id="184" depart="368.00">
        <route edges="-2048_3 -2048_1 -2048_2 -2046 -2088_4 -2088_5 -2086_1 -2058 --1970_2 --1970_1 --2056"/>
    </vehicle>
    <vehicle id="185" depart="370.00">
        <route edges="--2094 -1970_2 --2058 -2086_2 -2210 --2042_3 -1984"/>
    </vehicle>
    <vehicle id="186" depart="372.00">
        <route edges="--2054 --2058 -2086_2 -2210 --2210"/>
    </vehicle>
    <vehicle id="187" depart="374.00">
        <route edges="--2086_2 --2086_1 -2088_3 -2088_1 -2088_2 -2088_4 -2088_5"/>
    </vehicle>
    <vehicle id="188" depart="376.00">
        <route edges="--1974 --2052 -1970_1 -1970_2 --2058 --2086_1 -2088_3 -2088_1"/>
    </vehicle>
    <vehicle id="189" depart="378.00">
        <route edges="--2042_1 -2044_4 -2050 -2048_1"/>
    </vehicle>
    <vehicle id="190" depart="380.00">
        <route edges="-2088_2 --2046 -2048_3 -2048_1 --1978 --1976 --1984 -2090"/>
    </vehicle>
    <vehicle id="191" depart="382.00">
        <route edges="--1980_1 -1980_1 -1980_2 --2086_2 --2086_1 -2088_3 -2088_1 -2088_2 --2046 -2048_3 -2048_1 -2048_2"/>
    </vehicle>
    <vehicle id="192" depart="384.00">
        <route edges="-2014 -2044_3 -2044_4 -2050 -2048_1 -2048_2 -2046 -2088_4 --2042_2 -2042_2"/>
    </vehicle>
    <vehicle id="193" depart="386.00">
        <route edges="-2092 -2206 -2044_1"/>
    </vehicle>
    <vehicle id="194" depart="388.00">
        <route edges="-2088_3 -2088_1 -2088_2 -2088_4 -2088_5 -2086_1 -2058 --1970_2 --1970_1 -2052"/>
    </vehicle>
    <vehicle id="195" depart="390.00">
        <route edges="--2046 -2048_3 -2048_1 --1978 --1976 --1984 -2090"/>
    </vehicle>
    <vehicle id="196" depart="392.00">
        <route edges="-1980_1 -1980_2 --2086_2 --2086_1 -2088_3 -2088_1 -2088_2 --2046 -2048_3 -2048_1 --1978"/>
    </vehicle>
    <vehicle id="197" depart="394.00">
        <route edges="-2044_2 -2044_1 -2044_3 -2044_4 -2050 -2048_1 --1978 --1976 --1984 --2042_1"/>
    </vehicle>
    <vehicle id="198" depart="396.00">
        <route edges="-1970_2 --1970_2 --1970_1 --1982 -2208 --2208"/>
    </vehicle>
    <vehicle id="199" depart="398.00">
        <route edges="--1968 --2058 -2086_2 -2210"/>
    </vehicle>
    <vehicle id="200" depart="400.00">
        <route edges="-2208 --2092 -2088_2 --2046 -2048_3 -2048_1 --1978 --1976"/>
    </vehicle>
    <vehicle id="201" depart="402.00">
        <route edges="-1978 -2048_2 -2046 -2088_4 -2088_5 -2086_1"/>
    </vehicle>
    <vehicle id="202" depart="404.00">
        <route edges="-2088_5 -2086_1 -2058 --1970_2 --1970_1 -2052"/>
    </vehicle>
    <vehicle id="203" depart="406.00">
        <route edges="-2050 -2048_1 -2048_2 -2046 -2088_4 -2088_5 -2088_3 -2088_1 -2088_2"/>
    </vehicle>
    <vehicle id="204" depart="408.00">
        <route edges="-2018 --2086_2 -2058 --1970_2 --1970_1 -2052 -1974"/>
    </vehicle>
    <vehicle id="205" depart="410.00">
        <route edges="--1970_1 -1970_1 -1970_2 --2058 -2086_2 -2210 --2042_3 -2090"/>
    </vehicle>
    <vehicle id="206" depart="412.00">
        <route edges="-2088_2 --2046 -2048_3 --2050 -2044_2 -2044_1 -2044_3 -2044_4"/>
    </vehicle>
    <vehicle id="207" depart="414.00">
        <route edges="--2052 --1982 -2208 --2208"/>
    </vehicle>
    <vehicle id="208" depart="416.00">
        <route edges="--2058 -2058 --1970_2 --1970_1 --2056"/>
    </vehicle>
    <vehicle id="209" depart="418.00">
        <route edges="-1980_1 -1980_2 --2086_2 --2086_1 -2088_3 -2088_1 -2088_2 --2046 -2048_3"/>
    </vehicle>
    <vehicle id="210" depart="420.00">
        <route edges="-2058 --1970_2 --1970_1 --1982 -2208 --2208"/>
    </vehicle>
    <vehicle id="211" depart="422.00">
        <route edges="-2088_4 -2088_5 -2088_3 -2088_1 -2088_2 --2046 -2048_3 -2048_1 --1978"/>
    </vehicle>
    <vehicle id="212" depart="424.00">
        <route edges="--2052 -1970_1 -1970_2 --2058 --2086_1 -2088_3 -2088_1 -2088_2 -2088_4"/>
    </vehicle>
    <vehicle id="213" depart="426.00">
        <route edges="-2048_2 -2046 -2088_4 -2088_5 -2086_1 -2058 --1970_2 --1970_1 --1982 -2208"/>
    </vehicle>
    <vehicle id="214" depart="428.00">
        <route edges="-2088_5 -2086_1 -2086_2 --2018"/>
    </vehicle>
    <vehicle id="215" depart="430.00">
        <route edges="-2088_2 -2088_4 -2088_5 -2088_3"/>
    </vehicle>
    <vehicle id="216" depart="432.00">
        <route edges="-2206 -2044_1 -2044_3 -2044_4 -2050 -2048_1 -2048_2 -2046 -2088_4 -2088_5 -2086_1 -2058 --1970_2"/>
    </vehicle>
    <vehicle id="217" depart="434.00">
        <route edges="-2018 --2086_2 --2086_1 -2088_3 -2088_1 -2088_2 --2046 -2048_3"/>
    </vehicle>
    <vehicle id="218" depart="436.00">
        <route edges="-2042_2 -2088_5 -2088_3 -2088_1 -2088_2 --2046 -2048_3 -2048_1 --1978 --1976 -1976"/>
    </vehicle>
    <vehicle id="219" depart="438.00">