<?xml version='1.0' encoding='UTF-8'?>
<edges>
  <edge id="-618" from="-1244" to="-1248" numLanes="1" width="4.5" shape="-141.737658,396.875392 -91.167515,403.343310 -42.216783,408.633395 3.495126,411.567814 44.888606,411.361345 83.043262,408.799211 119.578508,405.059244 "/>
  <edge id="--618" to="-1244" from="-1248" numLanes="1" width="4.5" shape="119.578508,405.059244 83.043262,408.799211 44.888606,411.361345 3.495126,411.567814 -42.216783,408.633395 -91.167515,403.343310 -141.737658,396.875392 "/>
  <edge id="-1083" from="-38" to="-1093" numLanes="2" width="4.333333333333333" shape="-127.057246,74.573399 -157.241890,-4.955210 -172.334211,-44.719514 -202.518854,-124.248123 -212.466066,-150.456414 -217.611176,-164.012427 -247.795819,-243.541036 "/>
  <edge id="--1083" to="-38" from="-1093" numLanes="1" width="4.333333333333333" shape="-247.795819,-243.541036 -217.611176,-164.012427 -212.466066,-150.456414 -202.518854,-124.248123 -172.334211,-44.719514 -157.241890,-4.955210 -127.057246,74.573399 "/>
  <edge id="-1085" from="-38" to="Custom8" numLanes="1" width="4.5" shape="-129.876194,90.052723 -140.751194,109.052723 -151.626194,128.052723 -162.501194,147.052723 -173.376194,166.052723 -184.251194,185.052723 -195.126194,204.052723 -206.001194,223.052723 -216.876194,242.052723 "/>
  <edge id="--1085" to="-38" from="Custom8" numLanes="1" width="4.5" shape="-216.876194,242.052723 -206.001194,223.052723 -195.126194,204.052723 -184.251194,185.052723 -173.376194,166.052723 -162.501194,147.052723 -151.626194,128.052723 -140.751194,109.052723 -129.876194,90.052723 "/>
  <edge id="-1126" from="-1093" to="Custom9" numLanes="1" width="3.5" shape="-252.364774,-253.475955 -253.238748,-258.865702 -254.097924,-264.253764 -254.927502,-269.638455 -255.712685,-275.018092 -256.438673,-280.390988 -257.090668,-285.755459 -257.653872,-291.109819 -258.113486,-296.452384 -258.455042,-301.780950 -258.665395,-307.091241 -258.731732,-312.378462 -258.641239,-317.637819 -258.381102,-322.864517 -257.938508,-328.053762 -257.300643,-333.200759 -256.454694,-338.300714 -255.382317,-343.348034 -254.043057,-348.333940 -252.390929,-353.248853 -250.379949,-358.083196 -247.964133,-362.827391 -245.097495,-367.471860 -241.734051,-372.007025 -237.827818,-376.423309 -233.334727,-380.708296 -228.218384,-384.838218 -222.444310,-388.786471 -215.978028,-392.526449 -208.785060,-396.031545 -200.830928,-399.275157 -192.081154,-402.230677 -182.501261,-404.871500 -172.080528,-407.182566 -160.903273,-409.194993 -149.077570,-410.951444 -136.711493,-412.494581 -123.913117,-413.867068 -110.790518,-415.111566 -97.451769,-416.270738 -84.004945,-417.387248 "/>
  <edge id="--1126" to="-1093" from="Custom9" numLanes="1" width="3.5" shape="-84.004945,-417.387248 -97.451769,-416.270738 -110.790518,-415.111566 -123.913117,-413.867068 -136.711493,-412.494581 -149.077570,-410.951444 -160.903273,-409.194993 -172.080528,-407.182566 -182.501261,-404.871500 -192.081154,-402.230677 -200.830928,-399.275157 -208.785060,-396.031545 -215.978028,-392.526449 -222.444310,-388.786471 -228.218384,-384.838218 -233.334727,-380.708296 -237.827818,-376.423309 -241.734051,-372.007025 -245.097495,-367.471860 -247.964133,-362.827391 -250.379949,-358.083196 -252.390929,-353.248853 -254.043057,-348.333940 -255.382317,-343.348034 -256.454694,-338.300714 -257.300643,-333.200759 -257.938508,-328.053762 -258.381102,-322.864517 -258.641239,-317.637819 -258.731732,-312.378462 -258.665395,-307.091241 -258.455042,-301.780950 -258.113486,-296.452384 -257.653872,-291.109819 -257.090668,-285.755459 -256.438673,-280.390988 -255.712685,-275.018092 -254.927502,-269.638455 -254.097924,-264.253764 -253.238748,-258.865702 -252.364774,-253.475955 "/>
  <edge id="-1381" from="-1244" to="Custom10" numLanes="1" width="4.5" shape="-149.918442,401.981355 -160.838797,416.613211 -171.686585,431.029907 -182.389238,445.016282 -192.874190,458.357177 -203.068873,470.837430 -212.900720,482.241882 -222.297164,492.355373 -231.185637,500.962742 -239.525384,507.910395 -247.402893,513.291001 -254.936465,517.258796 -262.244398,519.968016 -269.444992,521.572897 -276.656548,522.227673 -283.997366,522.086581 -291.585744,521.303857 -299.512644,520.018183 -307.759672,518.306037 -316.281096,516.228343 -325.031183,513.846026 -333.964201,511.220010 -343.034416,508.411220 -352.196096,505.480581 -361.403509,502.489017 "/>
  <edge id="--1381" to="-1244" from="Custom10" numLanes="1" width="4.5" shape="-361.403509,502.489017 -352.196096,505.480581 -343.034416,508.411220 -333.964201,511.220010 -325.031183,513.846026 -316.281096,516.228343 -307.759672,518.306037 -299.512644,520.018183 -291.585744,521.303857 -283.997366,522.086581 -276.656548,522.227673 -269.444992,521.572897 -262.244398,519.968016 -254.936465,517.258796 -247.402893,513.291001 -239.525384,507.910395 -231.185637,500.962742 -222.297164,492.355373 -212.900720,482.241882 -203.068873,470.837430 -192.874190,458.357177 -182.389238,445.016282 -171.686585,431.029907 -160.838797,416.613211 -149.918442,401.981355 "/>
  <edge id="-2028" from="-1093" to="-2169" numLanes="1" width="4.5" shape="-257.995224,-248.430009 -264.638779,-250.280908 -271.271341,-252.054445 -277.881918,-253.673257 -284.459518,-255.059983 -290.993148,-256.137260 -297.471815,-256.827725 -303.884528,-257.054017 -310.220294,-256.738774 -316.464207,-255.824358 -322.585708,-254.332034 -328.550325,-252.302790 -334.323586,-249.777617 -339.871019,-246.797504 -345.158153,-243.403440 -350.150514,-239.636415 -354.813631,-235.537418 -359.117585,-231.137020 -363.050666,-226.424125 -366.605720,-221.377215 -369.775589,-215.974775 -372.553119,-210.195289 -374.931153,-204.017242 -376.902536,-197.419117 -378.460111,-190.379398 -379.606686,-182.889805 -380.384918,-174.994991 -380.847427,-166.752845 -381.046835,-158.221256 -381.035760,-149.458112 -380.866825,-140.521303 -380.592649,-131.468716 -380.265852,-122.358240 "/>
  <edge id="--2028" to="-1093" from="-2169" numLanes="1" width="4.5" shape="-380.265852,-122.358240 -380.592649,-131.468716 -380.866825,-140.521303 -381.035760,-149.458112 -381.046835,-158.221256 -380.847427,-166.752845 -380.384918,-174.994991 -379.606686,-182.889805 -378.460111,-190.379398 -376.902536,-197.419117 -374.931153,-204.017242 -372.553119,-210.195289 -369.775589,-215.974775 -366.605720,-221.377215 -363.050666,-226.424125 -359.117585,-231.137020 -354.813631,-235.537418 -350.150514,-239.636415 -345.158153,-243.403440 -339.871019,-246.797504 -334.323586,-249.777617 -328.550325,-252.302790 -322.585708,-254.332034 -316.464207,-255.824358 -310.220294,-256.738774 -303.884528,-257.054017 -297.471815,-256.827725 -290.993148,-256.137260 -284.459518,-255.059983 -277.881918,-253.673257 -271.271341,-252.054445 -264.638779,-250.280908 -257.995224,-248.430009 "/>
  <edge id="-2144" from="-1540" to="-38" numLanes="1" width="4.5" shape="328.672292,303.966694 328.654600,302.466988 328.636368,300.967804 328.617056,299.469664 328.596124,297.973091 328.573030,296.478605 328.547236,294.986731 328.518201,293.497989 328.485385,292.012901 328.448248,290.531991 328.406249,289.055779 328.358849,287.584788 328.305507,286.119540 328.245683,284.660557 328.178837,283.208362 328.104429,281.763475 328.021919,280.326421 327.930766,278.897719 327.830430,277.477894 327.720371,276.067466 327.600050,274.666957 327.468925,273.276891 327.326458,271.897789 327.172106,270.530172 327.005331,269.174564 326.825593,267.831486 326.632350,266.501461 326.425063,265.185010 326.203193,263.882655 325.966197,262.594919 325.713537,261.322324 325.444673,260.065391 325.159064,258.824644 324.856169,257.600458 324.535447,256.392632 324.196358,255.200815 323.838358,254.024662 323.460906,252.863822 323.063460,251.717948 322.645479,250.586693 322.206422,249.469706 321.745745,248.366641 321.262908,247.277150 320.757369,246.200883 320.228585,245.137493 319.676017,244.086632 319.099120,243.047950 318.497355,242.021101 317.870179,241.005736 317.217051,240.001507 316.537428,239.008065 315.830769,238.025063 315.096533,237.052151 314.334177,236.088983 313.543161,235.135209 312.722941,234.190482 311.872977,233.254453 310.992726,232.326774 310.081648,231.407097 309.139200,230.495074 308.164841,229.590356 307.158028,228.692595 306.118221,227.801444 305.044877,226.916553 303.937455,226.037575 302.794077,225.163749 301.607525,224.292667 300.369246,223.421506 299.070685,222.547447 297.703288,221.667667 296.258502,220.779346 294.727772,219.879662 293.102545,218.965795 291.374266,218.034922 289.534383,217.084223 287.574340,216.110877 285.485583,215.112063 283.259560,214.084959 280.887716,213.026743 278.361497,211.934596 275.672350,210.805696 272.811719,209.637221 269.771052,208.426350 266.541795,207.170263 263.115393,205.866138 259.483292,204.511154 255.636940,203.102489 251.567781,201.637323 247.267262,200.112834 242.726829,198.526202 237.937928,196.874604 232.892005,195.155220 227.580506,193.365229 221.994878,191.501809 216.126566,189.562139 209.967016,187.543399 203.507675,185.442767 196.743020,183.258332 189.679655,180.991832 182.327217,178.645913 174.695341,176.223222 166.793662,173.726407 158.631817,171.158116 150.219442,168.520995 141.566171,165.817692 132.681642,163.050854 123.575489,160.223128 114.257349,157.337162 104.736857,154.395602 95.023649,151.401097 85.127362,148.356294 75.057629,145.263839 64.824089,142.126380 54.436376,138.946565 43.904125,135.727040 33.236974,132.470453 22.444557,129.179451 11.536511,125.856682 0.522471,122.504793 -10.587926,119.126431 -21.785046,115.724243 -33.059253,112.300877 -44.400910,108.858980 -55.800381,105.401199 -67.248032,101.930182 -78.734226,98.448575 -90.249327,94.959027 -101.783699,91.464184 -113.327708,87.966694 "/>
  <edge id="--2144" to="-1540" from="-38" numLanes="1" width="4.5" shape="-113.327708,87.966694 -101.783699,91.464184 -90.249327,94.959027 -78.734226,98.448575 -67.248032,101.930182 -55.800381,105.401199 -44.400910,108.858980 -33.059253,112.300877 -21.785046,115.724243 -10.587926,119.126431 0.522471,122.504793 11.536511,125.856682 22.444557,129.179451 33.236974,132.470453 43.904125,135.727040 54.436376,138.946565 64.824089,142.126380 75.057629,145.263839 85.127362,148.356294 95.023649,151.401097 104.736857,154.395602 114.257349,157.337162 123.575489,160.223128 132.681642,163.050854 141.566171,165.817692 150.219442,168.520995 158.631817,171.158116 166.793662,173.726407 174.695341,176.223222 182.327217,178.645913 189.679655,180.991832 196.743020,183.258332 203.507675,185.442767 209.967016,187.543399 216.126566,189.562139 221.994878,191.501809 227.580506,193.365229 232.892005,195.155220 237.937928,196.874604 242.726829,198.526202 247.267262,200.112834 251.567781,201.637323 255.636940,203.102489 259.483292,204.511154 263.115393,205.866138 266.541795,207.170263 269.771052,208.426350 272.811719,209.637221 275.672350,210.805696 278.361497,211.934596 280.887716,213.026743 283.259560,214.084959 285.485583,215.112063 287.574340,216.110877 289.534383,217.084223 291.374266,218.034922 293.102545,218.965795 294.727772,219.879662 296.258502,220.779346 297.703288,221.667667 299.070685,222.547447 300.369246,223.421506 301.607525,224.292667 302.794077,225.163749 303.937455,226.037575 305.044877,226.916553 306.118221,227.801444 307.158028,228.692595 308.164841,229.590356 309.139200,230.495074 310.081648,231.407097 310.992726,232.326774 311.872977,233.254453 312.722941,234.190482 313.543161,235.135209 314.334177,236.088983 315.096533,237.052151 315.830769,238.025063 316.537428,239.008065 317.217051,240.001507 317.870179,241.005736 318.497355,242.021101 319.099120,243.047950 319.676017,244.086632 320.228585,245.137493 320.757369,246.200883 321.262908,247.277150 321.745745,248.366641 322.206422,249.469706 322.645479,250.586693 323.063460,251.717948 323.460906,252.863822 323.838358,254.024662 324.196358,255.200815 324.535447,256.392632 324.856169,257.600458 325.159064,258.824644 325.444673,260.065391 325.713537,261.322324 325.966197,262.594919 326.203193,263.882655 326.425063,265.185010 326.632350,266.501461 326.825593,267.831486 327.005331,269.174564 327.172106,270.530172 327.326458,271.897789 327.468925,273.276891 327.600050,274.666957 327.720371,276.067466 327.830430,277.477894 327.930766,278.897719 328.021919,280.326421 328.104429,281.763475 328.178837,283.208362 328.245683,284.660557 328.305507,286.119540 328.358849,287.584788 328.406249,289.055779 328.448248,290.531991 328.485385,292.012901 328.518201,293.497989 328.547236,294.986731 328.573030,296.478605 328.596124,297.973091 328.617056,299.469664 328.636368,300.967804 328.654600,302.466988 328.672292,303.966694 "/>
  <edge id="-2172" from="-1119" to="-1244" numLanes="1" width="4.5" shape="-367.921353,170.449322 -367.407735,174.709062 -366.812408,179.027244 -366.053665,183.462310 -365.049795,188.072700 -363.719092,192.916858 -361.979846,198.053224 -359.750348,203.540241 -356.948891,209.436350 -353.481649,215.800002 -349.206329,222.689689 -343.968522,230.163911 -337.613818,238.281169 -329.987808,247.099962 -320.936083,256.678793 -310.304232,267.076161 -297.937847,278.350566 -283.747606,290.531270 -267.904539,303.530570 -250.644763,317.231523 -232.204398,331.517189 -212.819561,346.270623 -192.726369,361.374885 -172.160942,376.713031 -151.359397,392.168119 "/>
  <edge id="--2172" to="-1119" from="-1244" numLanes="1" width="4.5" shape="-151.359397,392.168119 -172.160942,376.713031 -192.726369,361.374885 -212.819561,346.270623 -232.204398,331.517189 -250.644763,317.231523 -267.904539,303.530570 -283.747606,290.531270 -297.937847,278.350566 -310.304232,267.076161 -320.936083,256.678793 -329.987808,247.099962 -337.613818,238.281169 -343.968522,230.163911 -349.206329,222.689689 -353.481649,215.800002 -356.948891,209.436350 -359.750348,203.540241 -361.979846,198.053224 -363.719092,192.916858 -365.049795,188.072700 -366.053665,183.462310 -366.812408,179.027244 -367.407735,174.709062 -367.921353,170.449322 "/>
  <edge id="-2191" from="-1250" to="-1540" numLanes="1" width="4.5" shape="295.172321,368.317667 295.609887,368.192593 296.047850,368.067076 296.486606,367.940674 296.926553,367.812943 297.368086,367.683440 297.811603,367.551723 298.257501,367.417349 298.706175,367.279874 299.158024,367.138856 299.613442,366.993853 300.072829,366.844420 300.536579,366.690116 301.005090,366.530497 301.478758,366.365121 301.957981,366.193544 302.443154,366.015324 302.934676,365.830017 303.432941,365.637182 303.938348,365.436375 304.451292,365.227153 304.972171,365.009073 305.501382,364.781693 306.039320,364.544569 306.586384,364.297259 307.142968,364.039319 307.709471,363.770307 308.286289,363.489781 308.873818,363.197296 309.472456,362.892411 310.082599,362.574682 310.704644,362.243666 311.338988,361.898921 311.985716,361.540100 312.643675,361.167246 313.311400,360.780496 313.987425,360.379990 314.670286,359.965864 315.358519,359.538259 316.050658,359.097313 316.745238,358.643163 317.440794,358.175949 318.135863,357.695808 318.828978,357.202880 319.518675,356.697303 320.203490,356.179215 320.881956,355.648755 321.552611,355.106061 322.213988,354.551272 322.864622,353.984526 323.503050,353.405962 324.127806,352.815718 324.737425,352.213933 325.330443,351.600744 325.905394,350.976292 326.460814,350.340713 326.995238,349.694147 327.507201,349.036731 327.995238,348.368605 328.457884,347.689907 328.893675,347.000776 329.301146,346.301349 329.678831,345.591766 330.025267,344.872164 330.338988,344.142683 330.618994,343.403565 330.866148,342.655472 331.081778,341.899171 331.267210,341.135427 331.423773,340.365008 331.552794,339.588679 331.655600,338.807207 331.733519,338.021358 331.787878,337.231898 331.820006,336.439594 331.831228,335.645213 331.822874,334.849520 331.796270,334.053282 331.752745,333.257265 331.693624,332.462236 331.620237,331.668960 331.533910,330.878205 331.435972,330.090737 331.327749,329.307321 331.210569,328.528725 331.085759,327.755714 330.954648,326.989056 330.818562,326.229516 330.678829,325.477860 330.536777,324.734856 330.393734,324.001268 330.251025,323.277865 330.109981,322.565412 329.971926,321.864675 329.838190,321.176420 329.710100,320.501415 329.588983,319.840425 329.475902,319.194013 329.370863,318.561920 329.273605,317.943685 329.183870,317.338846 329.101398,316.746942 329.025930,316.167509 328.957207,315.600087 328.894968,315.044212 328.838955,314.499425 328.788908,313.965261 328.744568,313.441260 328.705675,312.926960 328.671970,312.421898 328.643194,311.925613 328.619087,311.437643 328.599389,310.957525 328.583842,310.484799 328.572186,310.019001 328.564162,309.559670 328.559510,309.106345 328.557970,308.658563 328.559284,308.215862 328.563192,307.777780 328.569435,307.343855 328.577752,306.913626 328.587886,306.486631 328.599576,306.062407 328.612563,305.640493 328.626587,305.220426 328.641390,304.801746 328.656711,304.383989 328.672292,303.966694 "/>
  <edge id="--2191" to="-1250" from="-1540" numLanes="1" width="4.5" shape="328.672292,303.966694 328.656711,304.383989 328.641390,304.801746 328.626587,305.220426 328.612563,305.640493 328.599576,306.062407 328.587886,306.486631 328.577752,306.913626 328.569435,307.343855 328.563192,307.777780 328.559284,308.215862 328.557970,308.658563 328.559510,309.106345 328.564162,309.559670 328.572186,310.019001 328.583842,310.484799 328.599389,310.957525 328.619087,311.437643 328.643194,311.925613 328.671970,312.421898 328.705675,312.926960 328.744568,313.441260 328.788908,313.965261 328.838955,314.499425 328.894968,315.044212 328.957207,315.600087 329.025930,316.167509 329.101398,316.746942 329.183870,317.338846 329.273605,317.943685 329.370863,318.561920 329.475902,319.194013 329.588983,319.840425 329.710100,320.501415 329.838190,321.176420 329.971926,321.864675 330.109981,322.565412 330.251025,323.277865 330.393734,324.001268 330.536777,324.734856 330.678829,325.477860 330.818562,326.229516 330.954648,326.989056 331.085759,327.755714 331.210569,328.528725 331.327749,329.307321 331.435972,330.090737 331.533910,330.878205 331.620237,331.668960 331.693624,332.462236 331.752745,333.257265 331.796270,334.053282 331.822874,334.849520 331.831228,335.645213 331.820006,336.439594 331.787878,337.231898 331.733519,338.021358 331.655600,338.807207 331.552794,339.588679 331.423773,340.365008 331.267210,341.135427 331.081778,341.899171 330.866148,342.655472 330.618994,343.403565 330.338988,344.142683 330.025267,344.872164 329.678831,345.591766 329.301146,346.301349 328.893675,347.000776 328.457884,347.689907 327.995238,348.368605 327.507201,349.036731 326.995238,349.694147 326.460814,350.340713 325.905394,350.976292 325.330443,351.600744 324.737425,352.213933 324.127806,352.815718 323.503050,353.405962 322.864622,353.984526 322.213988,354.551272 321.552611,355.106061 320.881956,355.648755 320.203490,356.179215 319.518675,356.697303 318.828978,357.202880 318.135863,357.695808 317.440794,358.175949 316.745238,358.643163 316.050658,359.097313 315.358519,359.538259 314.670286,359.965864 313.987425,360.379990 313.311400,360.780496 312.643675,361.167246 311.985716,361.540100 311.338988,361.898921 310.704644,362.243666 310.082599,362.574682 309.472456,362.892411 308.873818,363.197296 308.286289,363.489781 307.709471,363.770307 307.142968,364.039319 306.586384,364.297259 306.039320,364.544569 305.501382,364.781693 304.972171,365.009073 304.451292,365.227153 303.938348,365.436375 303.432941,365.637182 302.934676,365.830017 302.443154,366.015324 301.957981,366.193544 301.478758,366.365121 301.005090,366.530497 300.536579,366.690116 300.072829,366.844420 299.613442,366.993853 299.158024,367.138856 298.706175,367.279874 298.257501,367.417349 297.811603,367.551723 297.368086,367.683440 296.926553,367.812943 296.486606,367.940674 296.047850,368.067076 295.609887,368.192593 295.172321,368.317667 "/>
  <edge id="-2197" from="-1248" to="-1250" numLanes="1" width="4.5" shape="119.578509,405.059244 295.172322,368.317667 "/>
  <edge id="--2197" to="-1248" from="-1250" numLanes="1" width="4.5" shape="295.172322,368.317667 119.578509,405.059244 "/>
  <edge id="parking_lane_0" from="Custom11" to="Custom12" numLanes="1" width="2.5" shape="118.660150,400.648672 294.253963,363.907095 "/>
  <edge id="-2219" from="-2169" to="-1119" numLanes="1" width="4.5" shape="-380.265853,-122.358241 -367.921354,170.449321 "/>
  <edge id="--2219" to="-2169" from="-1119" numLanes="1" width="4.5" shape="-367.921354,170.449321 -380.265853,-122.358241 "/>
  <edge id="parking_lane_1" from="Custom13" to="Custom14" numLanes="1" width="2.5" shape="-375.770118,-122.544410 -363.425619,170.263152 "/>
</edges>
