<?xml version='1.0' encoding='UTF-8'?>
<edges>
  <edge id="-618" from="-1244" to="-1248" numLanes="1" width="4.5" shape="396.875392,141.737658 403.343310,91.167515 408.633395,42.216783 411.567814,-3.495126 411.361345,-44.888606 408.799211,-83.043262 405.059244,-119.578508 "/>
  <edge id="--618" to="-1244" from="-1248" numLanes="1" width="4.5" shape="405.059244,-119.578508 408.799211,-83.043262 411.361345,-44.888606 411.567814,-3.495126 408.633395,42.216783 403.343310,91.167515 396.875392,141.737658 "/>
  <edge id="-1083" from="-38" to="-1093" numLanes="2" width="4.33333333333" shape="74.573399,127.057246 34.809095,142.149568 -4.955210,157.241890 -44.719514,172.334211 -84.483819,187.426533 -98.685356,192.816648 -124.248123,202.518854 -164.012427,217.611176 -243.541036,247.795819 "/>
  <edge id="--1083" to="-38" from="-1093" numLanes="1" width="4.33333333333" shape="-243.541036,247.795819 -164.012427,217.611176 -124.248123,202.518854 -98.685356,192.816648 -84.483819,187.426533 -44.719514,172.334211 -4.955210,157.241890 34.809095,142.149568 74.573399,127.057246 "/>
  <edge id="-1085" from="-38" to="Custom8" numLanes="1" width="4.5" shape="90.052723,129.876194 109.052723,140.751194 128.052723,151.626194 147.052723,162.501194 166.052723,173.376194 185.052723,184.251194 204.052723,195.126194 223.052723,206.001194 242.052723,216.876194 "/>
  <edge id="--1085" to="-38" from="Custom8" numLanes="1" width="4.5" shape="242.052723,216.876194 223.052723,206.001194 204.052723,195.126194 185.052723,184.251194 166.052723,173.376194 147.052723,162.501194 128.052723,151.626194 109.052723,140.751194 90.052723,129.876194 "/>
  <edge id="-1126" from="-1093" to="Custom9" numLanes="1" width="3" shape="-253.475955,252.364774 -258.865702,253.238748 -264.253764,254.097924 -269.638455,254.927502 -275.018092,255.712685 -280.390988,256.438673 -285.755459,257.090668 -291.109819,257.653872 -296.452384,258.113486 -301.780950,258.455042 -307.091241,258.665395 -312.378462,258.731732 -317.637819,258.641239 -322.864517,258.381102 -328.053762,257.938508 -333.200759,257.300643 -338.300714,256.454694 -343.348034,255.382317 -348.333940,254.043057 -353.248853,252.390929 -358.083196,250.379949 -362.827391,247.964133 -367.471860,245.097495 -372.007025,241.734051 -376.423309,237.827818 -380.708296,233.334727 -384.838218,228.218384 -388.786471,222.444310 -392.526449,215.978028 -396.031545,208.785060 -399.275157,200.830928 -402.230677,192.081154 -404.871500,182.501261 -407.182566,172.080528 -409.194993,160.903273 -410.951444,149.077570 -412.494581,136.711493 -413.867068,123.913117 -415.111566,110.790518 -416.270738,97.451769 -417.387248,84.004945 "/>
  <edge id="--1126" to="-1093" from="Custom9" numLanes="1" width="3" shape="-417.387248,84.004945 -416.270738,97.451769 -415.111566,110.790518 -413.867068,123.913117 -412.494581,136.711493 -410.951444,149.077570 -409.194993,160.903273 -407.182566,172.080528 -404.871500,182.501261 -402.230677,192.081154 -399.275157,200.830928 -396.031545,208.785060 -392.526449,215.978028 -388.786471,222.444310 -384.838218,228.218384 -380.708296,233.334727 -376.423309,237.827818 -372.007025,241.734051 -367.471860,245.097495 -362.827391,247.964133 -358.083196,250.379949 -353.248853,252.390929 -348.333940,254.043057 -343.348034,255.382317 -338.300714,256.454694 -333.200759,257.300643 -328.053762,257.938508 -322.864517,258.381102 -317.637819,258.641239 -312.378462,258.731732 -307.091241,258.665395 -301.780950,258.455042 -296.452384,258.113486 -291.109819,257.653872 -285.755459,257.090668 -280.390988,256.438673 -275.018092,255.712685 -269.638455,254.927502 -264.253764,254.097924 -258.865702,253.238748 -253.475955,252.364774 "/>
  <edge id="-1381" from="-1244" to="Custom10" numLanes="1" width="4.5" shape="401.981355,149.918442 416.613211,160.838797 431.029907,171.686585 445.016282,182.389238 458.357177,192.874190 470.837430,203.068873 482.241882,212.900720 492.355373,222.297164 500.962742,231.185637 507.910395,239.525384 513.291001,247.402893 517.258796,254.936465 519.968016,262.244398 521.572897,269.444992 522.227673,276.656548 522.086581,283.997366 521.303857,291.585744 520.018183,299.512644 518.306037,307.759672 516.228343,316.281096 513.846026,325.031183 511.220010,333.964201 508.411220,343.034416 505.480581,352.196096 502.489017,361.403509 "/>
  <edge id="--1381" to="-1244" from="Custom10" numLanes="1" width="4.5" shape="502.489017,361.403509 505.480581,352.196096 508.411220,343.034416 511.220010,333.964201 513.846026,325.031183 516.228343,316.281096 518.306037,307.759672 520.018183,299.512644 521.303857,291.585744 522.086581,283.997366 522.227673,276.656548 521.572897,269.444992 519.968016,262.244398 517.258796,254.936465 513.291001,247.402893 507.910395,239.525384 500.962742,231.185637 492.355373,222.297164 482.241882,212.900720 470.837430,203.068873 458.357177,192.874190 445.016282,182.389238 431.029907,171.686585 416.613211,160.838797 401.981355,149.918442 "/>
  <edge id="-2028" from="-1093" to="-2169" numLanes="1" width="4.5" shape="-248.430009,257.995224 -250.280908,264.638779 -252.054445,271.271341 -253.673257,277.881918 -255.059983,284.459518 -256.137260,290.993148 -256.827725,297.471815 -257.054017,303.884528 -256.738774,310.220294 -255.824358,316.464207 -254.332034,322.585708 -252.302790,328.550325 -249.777617,334.323586 -246.797504,339.871019 -243.403440,345.158153 -239.636415,350.150514 -235.537418,354.813631 -231.137020,359.117585 -226.424125,363.050666 -221.377215,366.605720 -215.974775,369.775589 -210.195289,372.553119 -204.017242,374.931153 -197.419117,376.902536 -190.379399,378.460111 -182.889805,379.606686 -174.994991,380.384918 -166.752845,380.847427 -158.221256,381.046835 -149.458112,381.035760 -140.521303,380.866825 -131.468716,380.592649 -122.358240,380.265852 "/>
  <edge id="--2028" to="-1093" from="-2169" numLanes="1" width="4.5" shape="-122.358240,380.265852 -131.468716,380.592649 -140.521303,380.866825 -149.458112,381.035760 -158.221256,381.046835 -166.752845,380.847427 -174.994991,380.384918 -182.889805,379.606686 -190.379399,378.460111 -197.419117,376.902536 -204.017242,374.931153 -210.195289,372.553119 -215.974775,369.775589 -221.377215,366.605720 -226.424125,363.050666 -231.137020,359.117585 -235.537418,354.813631 -239.636415,350.150514 -243.403440,345.158153 -246.797504,339.871019 -249.777617,334.323586 -252.302790,328.550325 -254.332034,322.585708 -255.824358,316.464207 -256.738774,310.220294 -257.054017,303.884528 -256.827725,297.471815 -256.137260,290.993148 -255.059983,284.459518 -253.673257,277.881918 -252.054445,271.271341 -250.280908,264.638779 -248.430009,257.995224 "/>
  <edge id="-2144" from="-1540" to="-38" numLanes="1" width="4.5" shape="303.966694,-328.672292 297.973091,-328.596124 292.012901,-328.485385 286.119540,-328.305507 280.326421,-328.021919 274.666957,-327.600050 269.174564,-327.005331 263.882655,-326.203193 258.824644,-325.159064 254.024662,-323.838358 249.469706,-322.206422 245.137493,-320.228585 241.005736,-317.870179 237.052151,-315.096533 233.254453,-311.872977 229.590356,-308.164841 226.037575,-303.937455 222.547447,-299.070685 218.965795,-293.102545 215.112063,-285.485583 210.805696,-275.672350 205.866138,-263.115393 200.112834,-247.267262 193.365229,-227.580506 185.442767,-203.507675 176.223222,-174.695341 165.817692,-141.566171 154.395602,-104.736857 142.126380,-64.824089 129.179451,-22.444557 115.724243,21.785046 101.930182,67.248032 87.966694,113.327708 "/>
  <edge id="--2144" to="-1540" from="-38" numLanes="1" width="4.5" shape="87.966694,113.327708 101.930182,67.248032 115.724243,21.785046 129.179451,-22.444557 142.126380,-64.824089 154.395602,-104.736857 165.817692,-141.566171 176.223222,-174.695341 185.442767,-203.507675 193.365229,-227.580506 200.112834,-247.267262 205.866138,-263.115393 210.805696,-275.672350 215.112063,-285.485583 218.965795,-293.102545 222.547447,-299.070685 226.037575,-303.937455 229.590356,-308.164841 233.254453,-311.872977 237.052151,-315.096533 241.005736,-317.870179 245.137493,-320.228585 249.469706,-322.206422 254.024662,-323.838358 258.824644,-325.159064 263.882655,-326.203193 269.174564,-327.005331 274.666957,-327.600050 280.326421,-328.021919 286.119540,-328.305507 292.012901,-328.485385 297.973091,-328.596124 303.966694,-328.672292 "/>
  <edge id="-2172" from="-1119" to="-1244" numLanes="1" width="4.5" shape="170.449322,367.921353 174.709062,367.407735 179.027244,366.812408 183.462310,366.053665 188.072700,365.049795 192.916858,363.719092 198.053224,361.979846 203.540241,359.750348 209.436350,356.948891 215.800002,353.481649 222.689689,349.206329 230.163911,343.968522 238.281169,337.613818 247.099962,329.987808 256.678793,320.936083 267.076161,310.304232 278.350566,297.937847 290.531270,283.747606 303.530570,267.904539 317.231523,250.644763 331.517189,232.204398 346.270623,212.819561 361.374885,192.726370 376.713031,172.160942 392.168119,151.359397 "/>
  <edge id="--2172" to="-1119" from="-1244" numLanes="1" width="4.5" shape="392.168119,151.359397 376.713031,172.160942 361.374885,192.726370 346.270623,212.819561 331.517189,232.204398 317.231523,250.644763 303.530570,267.904539 290.531270,283.747606 278.350566,297.937847 267.076161,310.304232 256.678793,320.936083 247.099962,329.987808 238.281169,337.613818 230.163911,343.968522 222.689689,349.206329 215.800002,353.481649 209.436350,356.948891 203.540241,359.750348 198.053224,361.979846 192.916858,363.719092 188.072700,365.049795 183.462310,366.053665 179.027244,366.812408 174.709062,367.407735 170.449322,367.921353 "/>
  <edge id="-2191" from="-1250" to="-1540" numLanes="1" width="4.5" shape="368.317667,-295.172321 367.812943,-296.926553 367.279874,-298.706175 366.690116,-300.536579 366.015324,-302.443154 365.227153,-304.451292 364.297259,-306.586384 363.197296,-308.873818 361.898921,-311.338988 360.379990,-313.987425 358.643163,-316.745238 356.697303,-319.518675 354.551272,-322.213988 352.213933,-324.737425 349.694147,-326.995238 347.000776,-328.893675 344.142683,-330.338988 341.135427,-331.267210 338.021358,-331.733519 334.849520,-331.822874 331.668960,-331.620237 328.528725,-331.210569 325.477860,-330.678829 322.565412,-330.109981 319.840425,-329.588983 317.338846,-329.183870 315.044212,-328.894968 312.926960,-328.705675 310.957525,-328.599389 309.106345,-328.559510 307.343855,-328.569435 305.640493,-328.612563 303.966694,-328.672292 "/>
  <edge id="--2191" to="-1250" from="-1540" numLanes="1" width="4.5" shape="303.966694,-328.672292 305.640493,-328.612563 307.343855,-328.569435 309.106345,-328.559510 310.957525,-328.599389 312.926960,-328.705675 315.044212,-328.894968 317.338846,-329.183870 319.840425,-329.588983 322.565412,-330.109981 325.477860,-330.678829 328.528725,-331.210569 331.668960,-331.620237 334.849520,-331.822874 338.021358,-331.733519 341.135427,-331.267210 344.142683,-330.338988 347.000776,-328.893675 349.694147,-326.995238 352.213933,-324.737425 354.551272,-322.213988 356.697303,-319.518675 358.643163,-316.745238 360.379990,-313.987425 361.898921,-311.338988 363.197296,-308.873818 364.297259,-306.586384 365.227153,-304.451292 366.015324,-302.443154 366.690116,-300.536579 367.279874,-298.706175 367.812943,-296.926553 368.317667,-295.172321 "/>
  <edge id="-2197" from="-1248" to="-1250" numLanes="1" width="4.5" shape="405.059244,-119.578509 368.317667,-295.172322 "/>
  <edge id="--2197" to="-1248" from="-1250" numLanes="1" width="4.5" shape="368.317667,-295.172322 405.059244,-119.578509 "/>
  <edge id="parking_lane_0" from="Custom11" to="Custom12" numLanes="1" width="2.5" shape="400.648672,-118.660150 363.907095,-294.253963 "/>
  <edge id="-2219" from="-2169" to="-1119" numLanes="1" width="4.5" shape="-122.358241,380.265853 170.449321,367.921354 "/>
  <edge id="--2219" to="-2169" from="-1119" numLanes="1" width="4.5" shape="170.449321,367.921354 -122.358241,380.265853 "/>
  <edge id="parking_lane_1" from="Custom13" to="Custom14" numLanes="1" width="2.5" shape="-122.544410,375.770118 170.263152,363.425619 "/>
</edges>
