<?xml version='1.0' encoding='UTF-8'?>
<nodes>
  <node id="-1093" x="-251.236032" y="-246.534298" shape="-243.725401,-245.084879 -243.724645,-245.073292 -243.730454,-245.063238 -255.905362,-240.483864 -255.917067,-240.483136 -255.927167,-240.489095 -259.205933,-244.078304 -259.210624,-244.087167 -259.210424,-244.097194 -256.780025,-252.762825 -256.774067,-252.772361 -256.763905,-252.777176 -248.908015,-254.025042 -248.896298,-254.023356 -245.135693,-248.833655 -243.725401,-245.084879 -243.725401,-245.084879"/>
  <node id="-1119" x="-367.921353" y="170.449322"/>
  <node id="-1244" x="-145.723353" y="396.352939" shape="-141.163282,392.393197 -141.155745,392.399940 -141.152470,392.409508 -142.322318,401.337250 -142.326686,401.347336 -146.285690,404.670015 -146.296064,404.674540 -146.307232,404.672710 -153.526604,399.292272 -153.533494,399.282942 -154.045931,395.795781 -154.044216,395.784310 -148.676901,388.555058 -148.667312,388.548056 -148.655444,388.547723 -141.163282,392.393197 -141.163282,392.393197"/>
  <node id="-1248" x="119.578509" y="405.059244"/>
  <node id="-1250" x="295.172321" y="368.317667"/>
  <node id="-1540" x="328.672292" y="303.966694"/>
  <node id="-2169" x="-380.265853" y="-122.358241"/>
  <node id="-38" x="-127.668375" y="82.104325" shape="-135.168375,77.604325 -123.068375,72.904325 -111.368375,83.904325 -115.168375,92.104325 -125.668375,91.904325 -134.018375,88.404325 -135.168375,77.604325"/>
  <node id="Custom8" x="-216.87619399999997" y="242.05272300000001"/>
  <node id="Custom9" x="-84.00494500000005" y="-417.387248"/>
  <node id="Custom10" x="-361.403509" y="502.48901700000005"/>
  <node id="Custom11" x="118.40414194707469" y="399.42516840872895"/>
  <node id="Custom12" x="293.99795494707473" y="362.68359140872894"/>
  <node id="Custom13" x="-374.5212274290452" y="-122.5970617517921"/>
  <node id="Custom14" x="-362.17672842904517" y="170.21050024820792"/>
</nodes>
