<?xml version='1.0' encoding='UTF-8'?>
<nodes>
  <node id="-1093" x="-246.534298" y="251.236032" shape="-245.084879,243.725401 -245.073292,243.724645 -245.063238,243.730454 -240.483864,255.905362 -240.483136,255.917067 -240.489095,255.927167 -244.078304,259.205933 -244.087167,259.210624 -244.097194,259.210424 -252.762825,256.780025 -252.772361,256.774067 -252.777176,256.763905 -254.025042,248.908015 -254.023356,248.896298 -248.833655,245.135693 -245.084879,243.725401 -245.084879,243.725401"/>
  <node id="-1119" x="170.449322" y="367.921353"/>
  <node id="-1244" x="396.352939" y="145.723353" shape="392.393197,141.163282 392.399940,141.155745 392.409508,141.152470 401.337250,142.322318 401.347336,142.326686 404.670015,146.285690 404.674540,146.296064 404.672710,146.307232 399.292272,153.526604 399.282942,153.533494 395.795781,154.045931 395.784310,154.044216 388.555058,148.676901 388.548056,148.667312 388.547723,148.655444 392.393197,141.163282 392.393197,141.163282"/>
  <node id="-1248" x="405.059244" y="-119.578509"/>
  <node id="-1250" x="368.317667" y="-295.172321"/>
  <node id="-1540" x="303.966694" y="-328.672292"/>
  <node id="-2169" x="-122.358241" y="380.265853"/>
  <node id="-38" x="82.104325" y="127.668375" shape="77.604325,135.168375 72.904325,123.068375 83.904325,111.368375 92.104325,115.168375 91.904325,125.668375 88.404325,134.018375 77.604325,135.168375"/>
  <node id="Custom8" x="242.052723" y="216.876194"/>
  <node id="Custom9" x="-417.387248" y="84.004945"/>
  <node id="Custom10" x="502.489017" y="361.403509"/>
  <node id="Custom11" x="399.425168409" y="-118.404141947"/>
  <node id="Custom12" x="362.683591409" y="-293.997954947"/>
  <node id="Custom13" x="-122.597061752" y="374.521227429"/>
  <node id="Custom14" x="170.210500248" y="362.176728429"/>
</nodes>
