<?xml version="1.0" encoding="UTF-8"?>

<!-- generated on 17.05.2018 17:46:28 by Netedit Version 0.30.0
<?xml version="1.0" encoding="UTF-8"?>

<configuration xmlns:xsi="http://www.w3.org/2001/XMLSchema-instance" xsi:noNamespaceSchemaLocation="http://sumo.dlr.de/xsd/netconvertConfiguration.xsd">

    <input>
        <sumo-net-file value="C:\msys64\home\David\develop\webots-develop\private_projects\driving_school\worlds\RTI_net\sumo.net.xml"/>
    </input>

    <output>
        <output-file value="C:\msys64\home\David\develop\webots-develop\private_projects\driving_school\worlds\RTI_net\sumo.net.xml"/>
    </output>

    <processing>
        <no-turnarounds value="true"/>
        <offset.disable-normalization value="true"/>
        <lefthand value="false"/>
        <junctions.corner-detail value="0"/>
        <rectangular-lane-cut value="false"/>
    </processing>

    <visualisation>
        <registry-viewport value="true"/>
    </visualisation>

</configuration>
-->

<net version="0.27" xmlns:xsi="http://www.w3.org/2001/XMLSchema-instance" xsi:noNamespaceSchemaLocation="http://sumo.dlr.de/xsd/net_file.xsd">

    <location netOffset="417.39,331.82" convBoundary="0.00,0.00,939.61,712.87" origBoundary="-417.39,-331.82,522.23,381.05" projParameter="!"/>

    <edge id=":-1093_0" function="internal">
        <lane id=":-1093_0_0" index="0" speed="13.90" length="7.05" width="4.50" shape="176.19,585.84 174.31,586.72 172.85,587.78 171.80,589.02 171.18,590.44"/>
    </edge>
    <edge id=":-1093_1" function="internal">
        <lane id=":-1093_1_0" index="0" speed="13.90" length="11.27" width="3.00" shape="174.63,581.69 171.47,583.05 169.28,584.15 167.14,585.03 164.16,585.72"/>
    </edge>
    <edge id=":-1093_2" function="internal">
        <lane id=":-1093_2_0" index="0" speed="13.90" length="10.81" width="4.33" shape="163.67,582.66 166.56,581.77 168.46,580.47 170.32,578.98 173.06,577.55"/>
    </edge>
    <edge id=":-1093_3" function="internal">
        <lane id=":-1093_3_0" index="0" speed="13.90" length="4.96" width="4.50" shape="163.67,582.66 167.94,582.53 168.56,582.83"/>
    </edge>
    <edge id=":-1093_6" function="internal">
        <lane id=":-1093_6_0" index="0" speed="13.90" length="9.16" width="4.50" shape="168.56,582.83 170.61,583.79 171.69,586.42 171.18,590.44"/>
    </edge>
    <edge id=":-1093_4" function="internal">
        <lane id=":-1093_4_0" index="0" speed="13.90" length="5.65" width="3.00" shape="166.75,589.20 167.01,587.45 166.67,586.29 165.72,585.71 164.16,585.72"/>
    </edge>
    <edge id=":-1093_5" function="internal">
        <lane id=":-1093_5_0" index="0" speed="13.90" length="13.57" width="4.33" shape="166.75,589.20 168.22,584.59 169.77,581.11 171.38,578.77 173.06,577.55"/>
    </edge>
    <edge id=":-1119_0" function="internal">
        <lane id=":-1119_0_0" index="0" speed="13.90" length="0.53" width="4.50" shape="588.29,702.00 587.76,702.05"/>
    </edge>
    <edge id=":-1119_1" function="internal">
        <lane id=":-1119_1_0" index="0" speed="13.90" length="0.17" width="4.50" shape="587.57,697.45 587.74,697.44"/>
    </edge>
    <edge id=":-1244_0" function="internal">
        <lane id=":-1244_0_0" index="0" speed="13.90" length="7.60" width="4.50" shape="817.99,483.58 816.17,482.59 814.46,482.42 812.87,483.07 811.41,484.55"/>
    </edge>
    <edge id=":-1244_1" function="internal">
        <lane id=":-1244_1_0" index="0" speed="13.90" length="12.50" width="4.50" shape="817.99,483.58 815.11,481.06 813.14,478.51 812.10,475.91 811.98,473.27"/>
    </edge>
    <edge id=":-1244_2" function="internal">
        <lane id=":-1244_2_0" index="0" speed="13.90" length="7.64" width="4.50" shape="816.54,473.86 816.68,475.23 817.42,476.69 818.78,478.25 820.74,479.90"/>
    </edge>
    <edge id=":-1244_3" function="internal">
        <lane id=":-1244_3_0" index="0" speed="13.90" length="12.04" width="4.50" shape="816.54,473.86 815.89,477.06 814.85,479.56 813.38,481.89 811.41,484.55"/>
    </edge>
    <edge id=":-1244_4" function="internal">
        <lane id=":-1244_4_0" index="0" speed="13.90" length="9.74" width="4.50" shape="807.71,481.81 809.50,479.52 810.69,477.88 811.46,476.06 811.98,473.27"/>
    </edge>
    <edge id=":-1244_5" function="internal">
        <lane id=":-1244_5_0" index="0" speed="13.90" length="6.84" width="4.50" shape="807.71,481.81 810.61,478.88 813.13,477.84"/>
    </edge>
    <edge id=":-1244_6" function="internal">
        <lane id=":-1244_6_0" index="0" speed="13.90" length="8.18" width="4.50" shape="813.13,477.84 813.75,477.59 817.13,477.93 820.74,479.90"/>
    </edge>
    <edge id=":-1248_0" function="internal">
        <lane id=":-1248_0_0" index="0" speed="13.90" length="0.23" width="4.50" shape="820.19,212.71 820.18,212.64 820.17,212.59 820.16,212.55 820.15,212.48"/>
    </edge>
    <edge id=":-1248_1" function="internal">
        <lane id=":-1248_1_0" index="0" speed="13.90" length="0.71" width="4.50" shape="824.65,211.54 824.70,211.74 824.72,211.89 824.74,212.03 824.76,212.24"/>
    </edge>
    <edge id=":-1250_0" function="internal">
        <lane id=":-1250_0_0" index="0" speed="13.90" length="0.16" width="4.50" shape="783.48,37.28 783.44,37.12"/>
    </edge>
    <edge id=":-1250_1" function="internal">
        <lane id=":-1250_1_0" index="0" speed="13.90" length="0.49" width="4.50" shape="787.87,35.86 787.98,36.34"/>
    </edge>
    <edge id=":-1540_0" function="internal">
        <lane id=":-1540_0_0" index="0" speed="13.90" length="0.11" width="4.50" shape="721.27,5.45 721.38,5.45"/>
    </edge>
    <edge id=":-1540_1" function="internal">
        <lane id=":-1540_1_0" index="0" speed="13.90" length="0.11" width="4.50" shape="721.32,0.85 721.43,0.85"/>
    </edge>
    <edge id=":-2169_0" function="internal">
        <lane id=":-2169_0_0" index="0" speed="13.90" length="0.31" width="4.50" shape="295.28,714.38 294.96,714.39"/>
    </edge>
    <edge id=":-2169_1" function="internal">
        <lane id=":-2169_1_0" index="0" speed="13.90" length="0.28" width="4.50" shape="294.80,709.80 295.08,709.79"/>
    </edge>
    <edge id=":-38_0" function="internal">
        <lane id=":-38_0_0" index="0" speed="13.90" length="12.68" width="4.33" shape="506.61,463.88 504.48,463.17 501.73,463.14 498.34,463.78 494.32,465.09"/>
    </edge>
    <edge id=":-38_1" function="internal">
        <lane id=":-38_1_0" index="0" speed="13.90" length="5.94" width="4.50" shape="506.61,463.88 503.42,460.93 502.85,459.44"/>
    </edge>
    <edge id=":-38_7" function="internal">
        <lane id=":-38_7_0" index="0" speed="13.90" length="15.70" width="4.50" shape="502.85,459.44 501.79,456.66 501.74,451.05 503.26,444.10"/>
    </edge>
    <edge id=":-38_2" function="internal">
        <lane id=":-38_2_0" index="0" speed="13.90" length="14.44" width="4.50" shape="507.48,446.06 506.28,451.06 506.03,454.99 506.74,457.84 508.40,459.60"/>
    </edge>
    <edge id=":-38_3" function="internal">
        <lane id=":-38_3_0" index="0" speed="13.90" length="22.79" width="4.33" shape="507.48,446.06 504.85,453.20 501.78,458.75 498.27,462.71 494.32,465.09"/>
        <lane id=":-38_3_1" index="1" speed="13.90" length="22.79" width="4.33" shape="507.48,446.06 505.36,450.93 502.20,455.04 498.00,458.38 492.75,460.95"/>
    </edge>
    <edge id=":-38_5" function="internal">
        <lane id=":-38_5_0" index="0" speed="13.90" length="18.30" width="4.50" shape="491.05,456.85 495.35,454.72 498.82,451.88 501.46,448.34 503.26,444.10"/>
    </edge>
    <edge id=":-38_6" function="internal">
        <lane id=":-38_6_0" index="0" speed="13.90" length="18.14" width="4.50" shape="491.05,456.85 494.97,455.95 499.16,456.11 503.64,457.33 508.40,459.60"/>
    </edge>
    <edge id=":Custom10_0" function="internal">
        <lane id=":Custom10_0_0" index="0" speed="13.90" length="6.72" width="4.50" shape="922.07,693.94 920.44,695.23 919.17,695.42 918.25,694.52 917.69,692.52"/>
    </edge>
    <edge id=":Custom9_0" function="internal">
        <lane id=":Custom9_0_0" index="0" speed="13.90" length="4.53" width="3.00" shape="-1.54,415.96 -0.87,414.74 -0.13,414.29 0.68,414.61 1.54,415.70"/>
    </edge>
    <edge id=":gneJ1_0" function="internal">
        <lane id=":gneJ1_0_0" index="0" speed="13.90" length="3.28" width="4.50" shape="525.08,388.01 524.12,391.15"/>
    </edge>
    <edge id=":gneJ1_1" function="internal">
        <lane id=":gneJ1_1_0" index="0" speed="13.90" length="3.32" width="4.50" shape="519.67,389.98 520.64,386.80"/>
    </edge>
    <edge id=":gneJ3_0" function="internal">
        <lane id=":gneJ3_0_0" index="0" speed="13.90" length="6.06" width="4.33" shape="447.37,482.91 441.71,485.06"/>
        <lane id=":gneJ3_0_1" index="1" speed="13.90" length="6.06" width="4.33" shape="445.85,478.75 440.17,480.91"/>
    </edge>
    <edge id=":gneJ3_2" function="internal">
        <lane id=":gneJ3_2_0" index="0" speed="13.90" length="6.10" width="4.33" shape="438.63,476.75 444.33,474.59"/>
    </edge>
    <edge id=":gneJ4_0" function="internal">
        <lane id=":gneJ4_0_0" index="0" speed="13.90" length="4.46" width="4.50" shape="553.73,490.85 549.86,488.63"/>
    </edge>
    <edge id=":gneJ4_1" function="internal">
        <lane id=":gneJ4_1_0" index="0" speed="13.90" length="4.59" width="4.50" shape="552.26,484.70 556.24,486.98"/>
    </edge>

    <edge id="--1083.0" from="-1093" to="gneJ3" priority="-1" shape="173.85,579.62 253.37,549.43 293.14,534.34 318.70,524.64 332.90,519.25 372.67,504.16 412.43,489.06 442.38,477.70">
        <lane id="--1083.0_0" index="0" speed="13.90" length="284.05" width="4.33" shape="173.06,577.55 252.58,547.36 292.35,532.27 317.91,522.57 332.11,517.18 371.88,502.09 411.64,486.99 438.63,476.75"/>
    </edge>
    <edge id="--1083.287" from="gneJ3" to="-38" priority="-1" shape="442.38,477.70 452.20,473.97 491.96,458.88">
        <lane id="--1083.287_0" index="0" speed="13.90" length="49.98" width="4.33" shape="444.33,474.59 451.41,471.90 491.05,456.85"/>
    </edge>
    <edge id="--1085.0" from="Custom8" to="gneJ4" priority="-1" shape="659.44,548.70 640.44,537.82 621.44,526.95 602.44,516.07 583.44,505.20 564.44,494.32 552.85,487.69">
        <lane id="--1085.0_0" index="0" speed="13.90" length="120.48" width="4.50" shape="658.30,550.70 639.30,539.82 620.30,528.95 601.30,518.07 582.30,507.20 563.30,496.32 553.73,490.85"/>
    </edge>
    <edge id="--1085.122" from="gneJ4" to="-38" priority="-1" shape="552.85,487.69 545.44,483.45 526.44,472.57 507.44,461.70">
        <lane id="--1085.122_0" index="0" speed="13.90" length="49.83" width="4.50" shape="549.86,488.63 544.30,485.45 525.30,474.57 506.61,463.88"/>
    </edge>
    <edge id="--1126" from="Custom9" to="-1093" priority="-1" shape="0.00,415.83 1.12,429.27 2.28,442.61 3.52,455.74 4.89,468.53 6.44,480.90 8.19,492.73 10.20,503.90 12.52,514.32 15.16,523.90 18.11,532.65 21.36,540.61 24.86,547.80 28.60,554.27 32.55,560.04 36.68,565.16 40.96,569.65 45.38,573.56 49.92,576.92 54.56,579.79 59.30,582.20 64.14,584.21 69.05,585.87 74.04,587.21 79.09,588.28 84.19,589.12 89.33,589.76 94.52,590.20 99.75,590.46 105.01,590.55 110.30,590.49 115.61,590.28 120.93,589.94 126.28,589.48 131.63,588.91 137.00,588.26 142.37,587.54 147.75,586.75 153.13,585.92 158.52,585.06 163.91,584.19">
        <lane id="--1126_0" index="0" speed="13.90" length="288.28" width="3.00" shape="1.54,415.70 2.66,429.14 3.82,442.47 5.06,455.58 6.43,468.35 7.98,480.69 9.72,492.48 11.72,503.59 14.02,513.95 16.64,523.45 19.56,532.11 22.78,539.98 26.23,547.07 29.91,553.44 33.79,559.11 37.85,564.14 42.04,568.53 46.36,572.35 50.79,575.64 55.32,578.44 59.95,580.79 64.69,582.76 69.50,584.39 74.40,585.70 79.38,586.76 84.41,587.59 89.49,588.22 94.62,588.65 99.80,588.91 105.01,589.00 110.26,588.94 115.53,588.73 120.81,588.39 126.13,587.94 131.45,587.37 136.80,586.72 142.15,586.01 147.52,585.22 152.89,584.39 158.27,583.53 163.67,582.66"/>
    </edge>
    <edge id="--1381" from="Custom10" to="-1244" priority="-1" shape="919.88,693.23 922.87,684.02 925.80,674.86 928.61,665.79 931.23,656.85 933.62,648.10 935.69,639.58 937.41,631.34 938.69,623.41 939.47,615.82 939.61,608.48 938.96,601.27 937.36,594.07 934.65,586.76 930.68,579.23 925.30,571.35 918.35,563.01 909.74,554.12 899.63,544.72 888.22,534.89 875.74,524.70 862.40,514.21 848.42,503.51 834.00,492.66 819.37,481.74">
        <lane id="--1381_0" index="0" speed="13.90" length="264.06" width="4.50" shape="917.69,692.52 920.68,683.31 923.61,674.17 926.41,665.13 929.02,656.22 931.39,647.53 933.45,639.07 935.15,630.92 936.41,623.11 937.17,615.68 937.31,608.56 936.68,601.62 935.15,594.72 932.55,587.70 928.71,580.42 923.46,572.74 916.64,564.55 908.13,555.76 898.10,546.43 886.74,536.65 874.30,526.49 860.99,516.03 847.03,505.34 832.62,494.50 817.99,483.58"/>
    </edge>
    <edge id="--2028" from="-2169" to="-1093" priority="-1" shape="295.03,712.09 285.92,712.42 276.87,712.69 267.93,712.86 259.17,712.87 250.63,712.67 242.39,712.21 234.50,711.43 227.01,710.28 219.97,708.73 213.37,706.75 207.19,704.38 201.41,701.60 196.01,698.43 190.96,694.87 186.25,690.94 181.85,686.64 177.75,681.97 173.98,676.98 170.59,671.69 167.61,666.15 165.08,660.37 163.06,654.41 161.56,648.29 160.65,642.04 160.33,635.71 160.56,629.29 161.25,622.82 162.33,616.28 163.71,609.70 165.33,603.09 167.11,596.46 168.96,589.82">
        <lane id="--2028_0" index="0" speed="13.90" length="227.66" width="4.50" shape="294.96,714.39 286.00,714.72 276.93,714.99 267.95,715.16 259.14,715.17 250.54,714.97 242.21,714.50 234.21,713.71 226.59,712.54 219.39,710.96 212.63,708.93 206.28,706.49 200.33,703.63 194.76,700.37 189.56,696.70 184.71,692.65 180.18,688.22 175.97,683.42 172.09,678.30 168.61,672.86 165.54,667.16 162.93,661.20 160.85,655.05 159.30,648.73 158.36,642.26 158.03,635.73 158.26,629.13 158.97,622.51 160.07,615.86 161.47,609.19 163.10,602.52 164.89,595.85 166.75,589.20"/>
    </edge>
    <edge id="--2144.0" from="-38" to="gneJ1" priority="-1" shape="505.35,445.15 519.32,399.07 522.37,389.01">
        <lane id="--2144.0_0" index="0" speed="13.90" length="56.55" width="4.50" shape="503.26,444.10 517.12,398.40 519.67,389.98"/>
    </edge>
    <edge id="--2144.58" from="gneJ1" to="-1540" priority="-1" shape="522.37,389.01 533.11,353.61 546.57,309.38 559.51,267.00 571.78,227.09 583.20,190.26 593.61,157.13 602.83,128.32 610.75,104.24 617.50,84.56 623.25,68.71 628.19,56.15 632.50,46.34 636.35,38.72 639.93,32.75 643.42,27.89 646.98,23.66 650.64,19.95 654.44,16.73 658.39,13.95 662.52,11.59 666.86,9.62 671.41,7.98 676.21,6.66 681.27,5.62 686.56,4.82 692.05,4.22 697.71,3.80 703.51,3.52 709.40,3.34 715.36,3.23 721.35,3.15">
        <lane id="--2144.58_0" index="0" speed="13.90" length="468.09" width="4.50" shape="520.64,386.80 530.91,352.94 544.37,308.71 557.31,266.33 569.58,226.41 581.00,189.57 591.42,156.43 600.64,127.61 608.57,103.51 615.33,83.79 621.10,67.90 626.07,55.27 630.42,45.36 634.33,37.61 638.01,31.49 641.60,26.48 645.28,22.11 649.07,18.26 653.03,14.91 657.15,12.01 661.47,9.54 665.99,7.49 670.71,5.79 675.67,4.42 680.87,3.35 686.26,2.54 691.84,1.93 697.57,1.50 703.42,1.22 709.34,1.04 715.32,0.93 721.32,0.85"/>
    </edge>
    <edge id="--2172" from="-1244" to="-1119" priority="-1" shape="809.56,483.18 794.10,503.98 778.76,524.55 763.66,544.64 748.90,564.03 734.62,582.47 720.92,599.73 707.92,615.57 695.74,629.76 684.46,642.13 674.07,652.76 664.49,661.81 655.67,669.44 647.55,675.79 640.08,681.03 633.19,685.30 626.82,688.77 620.93,691.57 615.44,693.80 610.30,695.54 605.46,696.87 600.85,697.88 596.41,698.64 592.10,699.23 587.84,699.74">
        <lane id="--2172_0" index="0" speed="13.90" length="319.32" width="4.50" shape="811.41,484.55 795.94,505.35 780.60,525.93 765.49,546.03 750.72,565.43 736.43,583.89 722.71,601.17 709.68,617.05 697.46,631.28 686.13,643.71 675.68,654.40 666.03,663.52 657.13,671.22 648.92,677.64 641.35,682.95 634.35,687.29 627.86,690.82 621.86,693.68 616.24,695.96 610.97,697.74 606.01,699.10 601.29,700.14 596.76,700.91 592.39,701.51 588.29,702.00"/>
    </edge>
    <edge id="--2191" from="-1540" to="-1250" priority="-1" shape="721.35,3.15 723.03,3.21 724.73,3.25 726.49,3.26 728.34,3.22 730.31,3.12 732.43,2.93 734.73,2.64 737.23,2.23 739.95,1.71 742.87,1.14 745.92,0.61 749.06,0.20 752.24,0.00 755.41,0.09 758.52,0.56 761.53,1.48 764.39,2.93 767.08,4.83 769.60,7.09 771.94,9.61 774.08,12.30 776.03,15.08 777.77,17.84 779.29,20.48 780.58,22.95 781.68,25.24 782.61,27.37 783.40,29.38 784.08,31.29 784.67,33.12 785.20,34.90 785.70,36.65">
        <lane id="--2191_0" index="0" speed="13.90" length="87.24" width="4.50" shape="721.43,0.85 723.10,0.91 724.76,0.95 726.47,0.96 728.26,0.92 730.15,0.83 732.18,0.64 734.40,0.36 736.83,-0.03 739.51,-0.55 742.45,-1.12 745.57,-1.66 748.84,-2.09 752.20,-2.30 755.62,-2.21 759.03,-1.69 762.39,-0.66 765.58,0.95 768.52,3.03 771.21,5.45 773.69,8.11 775.92,10.92 777.95,13.81 779.74,16.65 781.31,19.37 782.64,21.92 783.77,24.28 784.73,26.49 785.55,28.57 786.26,30.55 786.87,32.44 787.41,34.26 787.87,35.86"/>
    </edge>
    <edge id="--2197" from="-1250" to="-1248" priority="-1">
        <lane id="--2197_0" index="0" speed="13.90" length="178.99" width="4.50" shape="787.98,36.34 824.65,211.54"/>
    </edge>
    <edge id="--2219" from="-1119" to="-2169" priority="-1">
        <lane id="--2219_0" index="0" speed="13.90" length="292.75" width="4.50" shape="587.76,702.05 295.28,714.38"/>
    </edge>
    <edge id="--618" from="-1248" to="-1244" priority="-1" shape="822.45,212.24 826.19,248.78 828.75,286.93 828.96,328.33 826.02,374.04 820.73,422.99 814.26,473.56">
        <lane id="--618_0" index="0" speed="13.90" length="262.69" width="4.50" shape="824.76,212.24 828.48,248.59 831.05,286.85 831.26,328.40 828.31,374.24 823.01,423.26 816.54,473.86"/>
    </edge>
    <edge id="-1083.0" from="-38" to="gneJ3" priority="-1" shape="491.96,458.88 452.20,473.97 442.38,477.70">
        <lane id="-1083.0_0" index="0" speed="13.90" length="50.19" width="4.33" shape="494.32,465.09 454.56,480.18 447.37,482.91"/>
        <lane id="-1083.0_1" index="1" speed="13.90" length="50.19" width="4.33" shape="492.75,460.95 452.99,476.04 445.85,478.75"/>
    </edge>
    <edge id="-1083.53" from="gneJ3" to="-1093" priority="-1" shape="442.38,477.70 412.43,489.06 372.67,504.16 332.90,519.25 318.70,524.64 293.14,534.34 253.37,549.43 173.85,579.62">
        <lane id="-1083.53_0" index="0" speed="13.90" length="284.02" width="4.33" shape="441.71,485.06 414.79,495.27 375.03,510.37 335.26,525.46 321.06,530.85 295.50,540.55 255.73,555.64 176.19,585.84"/>
        <lane id="-1083.53_1" index="1" speed="13.90" length="284.02" width="4.33" shape="440.17,480.91 413.22,491.13 373.46,506.23 333.69,521.32 319.49,526.71 293.93,536.41 254.16,551.50 174.63,581.69"/>
    </edge>
    <edge id="-1085.0" from="-38" to="gneJ4" priority="-1" shape="507.44,461.70 526.44,472.57 545.44,483.45 552.85,487.69">
        <lane id="-1085.0_0" index="0" speed="13.90" length="50.53" width="4.50" shape="508.40,459.60 527.58,470.57 546.58,481.45 552.26,484.70"/>
    </edge>
    <edge id="-1085.52" from="gneJ4" to="Custom8" priority="-1" shape="552.85,487.69 564.44,494.32 583.44,505.20 602.44,516.07 621.44,526.95 640.44,537.82 659.44,548.70">
        <lane id="-1085.52_0" index="0" speed="13.90" length="120.23" width="4.50" shape="556.24,486.98 565.58,492.32 584.58,503.20 603.58,514.07 622.58,524.95 641.58,535.82 660.58,546.70"/>
    </edge>
    <edge id="-1126" from="-1093" to="Custom9" priority="-1" shape="163.91,584.19 158.52,585.06 153.13,585.92 147.75,586.75 142.37,587.54 137.00,588.26 131.63,588.91 126.28,589.48 120.93,589.94 115.61,590.28 110.30,590.49 105.01,590.55 99.75,590.46 94.52,590.20 89.33,589.76 84.19,589.12 79.09,588.28 74.04,587.21 69.05,585.87 64.14,584.21 59.30,582.20 54.56,579.79 49.92,576.92 45.38,573.56 40.96,569.65 36.68,565.16 32.55,560.04 28.60,554.27 24.86,547.80 21.36,540.61 18.11,532.65 15.16,523.90 12.52,514.32 10.20,503.90 8.19,492.73 6.44,480.90 4.89,468.53 3.52,455.74 2.28,442.61 1.12,429.27 0.00,415.83">
        <lane id="-1126_0" index="0" speed="13.90" length="293.39" width="3.00" shape="164.16,585.72 158.77,586.59 153.37,587.45 147.98,588.28 142.59,589.07 137.20,589.80 131.81,590.45 126.43,591.02 121.05,591.49 115.69,591.83 110.34,592.04 105.01,592.10 99.70,592.01 94.42,591.75 89.17,591.30 83.97,590.65 78.80,589.80 73.68,588.72 68.60,587.35 63.59,585.66 58.65,583.61 53.80,581.14 49.05,578.20 44.40,574.77 39.88,570.77 35.51,566.18 31.31,560.97 27.29,555.10 23.49,548.53 19.94,541.24 16.66,533.19 13.68,524.35 11.02,514.69 8.68,504.21 6.66,492.98 4.90,481.11 3.35,468.71 1.98,455.90 0.74,442.75 -0.42,429.40 -1.54,415.96"/>
    </edge>
    <edge id="-1381" from="-1244" to="Custom10" priority="-1" shape="819.37,481.74 834.00,492.66 848.42,503.51 862.40,514.21 875.74,524.70 888.22,534.89 899.63,544.72 909.74,554.12 918.35,563.01 925.30,571.35 930.68,579.23 934.65,586.76 937.36,594.07 938.96,601.27 939.61,608.48 939.47,615.82 938.69,623.41 937.41,631.34 935.69,639.58 933.62,648.10 931.23,656.85 928.61,665.79 925.80,674.86 922.87,684.02 919.88,693.23">
        <lane id="-1381_0" index="0" speed="13.90" length="269.79" width="4.50" shape="820.74,479.90 835.38,490.82 849.81,501.68 863.81,512.39 877.18,522.91 889.70,533.13 901.16,543.01 911.35,552.48 920.06,561.47 927.14,569.96 932.65,578.04 936.75,585.82 939.57,593.42 941.24,600.92 941.91,608.40 941.77,615.96 940.97,623.71 939.67,631.76 937.93,640.09 935.85,648.67 933.44,657.48 930.81,666.45 927.99,675.55 925.06,684.73 922.07,693.94"/>
    </edge>
    <edge id="-2028" from="-1093" to="-2169" priority="-1" shape="168.96,589.82 167.11,596.46 165.33,603.09 163.71,609.70 162.33,616.28 161.25,622.82 160.56,629.29 160.33,635.71 160.65,642.04 161.56,648.29 163.06,654.41 165.08,660.37 167.61,666.15 170.59,671.69 173.98,676.98 177.75,681.97 181.85,686.64 186.25,690.94 190.96,694.87 196.01,698.43 201.41,701.60 207.19,704.38 213.37,706.75 219.97,708.73 227.01,710.28 234.50,711.43 242.39,712.21 250.63,712.67 259.17,712.87 267.93,712.86 276.87,712.69 285.92,712.42 295.03,712.09">
        <lane id="-2028_0" index="0" speed="13.90" length="219.01" width="4.50" shape="171.18,590.44 169.33,597.07 167.56,603.66 165.95,610.21 164.59,616.70 163.53,623.13 162.86,629.45 162.63,635.69 162.94,641.82 163.82,647.85 165.27,653.77 167.23,659.54 169.68,665.14 172.57,670.52 175.87,675.66 179.53,680.52 183.52,685.06 187.79,689.23 192.36,693.04 197.26,696.49 202.49,699.57 208.10,702.27 214.11,704.57 220.55,706.50 227.43,708.02 234.79,709.15 242.57,709.92 250.72,710.37 259.20,710.57 267.91,710.56 276.81,710.39 285.84,710.12 294.80,709.80"/>
    </edge>
    <edge id="-2144.0" from="-1540" to="gneJ1" priority="-1" shape="721.35,3.15 715.36,3.23 709.40,3.34 703.51,3.52 697.71,3.80 692.05,4.22 686.56,4.82 681.27,5.62 676.21,6.66 671.41,7.98 666.86,9.62 662.52,11.59 658.39,13.95 654.44,16.73 650.64,19.95 646.98,23.66 643.42,27.89 639.93,32.75 636.35,38.72 632.50,46.34 628.19,56.15 623.25,68.71 617.50,84.56 610.75,104.24 602.83,128.32 593.61,157.13 583.20,190.26 571.78,227.09 559.51,267.00 546.57,309.38 533.11,353.61 522.37,389.01">
        <lane id="-2144.0_0" index="0" speed="13.90" length="462.14" width="4.50" shape="721.38,5.45 715.40,5.53 709.46,5.64 703.60,5.82 697.85,6.10 692.26,6.51 686.86,7.10 681.67,7.89 676.75,8.90 672.11,10.17 667.73,11.75 663.57,13.64 659.63,15.89 655.85,18.55 652.21,21.64 648.68,25.21 645.24,29.30 641.85,34.01 638.37,39.83 634.58,47.32 630.31,57.03 625.40,69.52 619.67,85.33 612.93,104.97 605.02,129.03 595.80,157.83 585.40,190.95 573.98,227.77 561.71,267.67 548.77,310.05 535.31,354.28 525.08,388.01"/>
    </edge>
    <edge id="-2144.466" from="gneJ1" to="-38" priority="-1" shape="522.37,389.01 519.32,399.07 505.35,445.15">
        <lane id="-2144.466_0" index="0" speed="13.90" length="57.38" width="4.50" shape="524.12,391.15 521.52,399.74 507.48,446.06"/>
    </edge>
    <edge id="-2172" from="-1119" to="-1244" priority="-1" shape="587.84,699.74 592.10,699.23 596.41,698.64 600.85,697.88 605.46,696.87 610.30,695.54 615.44,693.80 620.93,691.57 626.82,688.77 633.19,685.30 640.08,681.03 647.55,675.79 655.67,669.44 664.49,661.81 674.07,652.76 684.46,642.13 695.74,629.76 707.92,615.57 720.92,599.73 734.62,582.47 748.90,564.03 763.66,544.64 778.76,524.55 794.10,503.98 809.56,483.18">
        <lane id="-2172_0" index="0" speed="13.90" length="315.58" width="4.50" shape="587.74,697.44 591.81,696.95 596.06,696.37 600.41,695.62 604.91,694.64 609.63,693.34 614.64,691.64 620.00,689.46 625.78,686.72 632.03,683.31 638.81,679.11 646.18,673.94 654.21,667.66 662.95,660.10 672.46,651.12 682.79,640.55 694.02,628.24 706.16,614.09 719.13,598.29 732.81,581.05 747.08,562.63 761.83,543.25 776.92,523.17 792.26,502.61 807.71,481.81"/>
    </edge>
    <edge id="-2191" from="-1250" to="-1540" priority="-1" shape="785.70,36.65 785.20,34.90 784.67,33.12 784.08,31.29 783.40,29.38 782.61,27.37 781.68,25.24 780.58,22.95 779.29,20.48 777.77,17.84 776.03,15.08 774.08,12.30 771.94,9.61 769.60,7.09 767.08,4.83 764.39,2.93 761.53,1.48 758.52,0.56 755.41,0.09 752.24,0.00 749.06,0.20 745.92,0.61 742.87,1.14 739.95,1.71 737.23,2.23 734.73,2.64 732.43,2.93 730.31,3.12 728.34,3.22 726.49,3.26 724.73,3.25 723.03,3.21 721.35,3.15">
        <lane id="-2191_0" index="0" speed="13.90" length="81.45" width="4.50" shape="783.44,37.12 782.99,35.54 782.47,33.80 781.90,32.03 781.25,30.19 780.49,28.25 779.59,26.20 778.52,23.98 777.27,21.59 775.80,19.03 774.11,16.35 772.24,13.68 770.19,11.11 767.99,8.73 765.64,6.63 763.20,4.91 760.67,3.62 758.01,2.81 755.20,2.39 752.28,2.30 749.28,2.49 746.27,2.88 743.29,3.40 740.39,3.97 737.63,4.49 735.06,4.92 732.68,5.22 730.47,5.41 728.42,5.52 726.51,5.56 724.70,5.55 722.96,5.51 721.27,5.45"/>
    </edge>
    <edge id="-2197" from="-1248" to="-1250" priority="-1">
        <lane id="-2197_0" index="0" speed="13.90" length="178.99" width="4.50" shape="820.15,212.48 783.48,37.28"/>
    </edge>
    <edge id="-2219" from="-2169" to="-1119" priority="-1">
        <lane id="-2219_0" index="0" speed="13.90" length="292.75" width="4.50" shape="295.08,709.79 587.57,697.45"/>
    </edge>
    <edge id="-618" from="-1244" to="-1248" priority="-1" shape="814.26,473.56 820.73,422.99 826.02,374.04 828.96,328.33 828.75,286.93 826.19,248.78 822.45,212.24">
        <lane id="-618_0" index="0" speed="13.90" length="261.62" width="4.50" shape="811.98,473.27 818.45,422.72 823.73,373.84 826.66,328.26 826.45,287.01 823.90,248.97 820.19,212.71"/>
    </edge>
    <edge id="parking_lane_0" from="Custom11" to="Custom12" priority="-1" shape="818.04,213.16 781.29,37.57">
        <lane id="parking_lane_0_0" index="0" speed="13.90" length="179.40" width="2.50" shape="816.77,213.43 780.02,37.83"/>
    </edge>
    <edge id="parking_lane_1" from="Custom13" to="Custom14" priority="-1" shape="294.84,707.59 587.65,695.25">
        <lane id="parking_lane_1_0" index="0" speed="13.90" length="293.07" width="2.50" shape="294.79,706.29 587.60,693.95"/>
    </edge>

    <tlLogic id="gneJ1" type="static" programID="0" offset="0">
        <phase duration="45" state="GG"/>
        <phase duration="4" state="yy"/>
        <phase duration="15" state="rr"/>
        <phase duration="4" state="yy"/>
    </tlLogic>
    <tlLogic id="gneJ3" type="static" programID="0" offset="0">
        <phase duration="45" state="GGG"/>
        <phase duration="4" state="yyy"/>
        <phase duration="15" state="rrr"/>
        <phase duration="4" state="yyy"/>
    </tlLogic>
    <tlLogic id="gneJ4" type="static" programID="0" offset="0">
        <phase duration="45" state="GG"/>
        <phase duration="4" state="yy"/>
        <phase duration="15" state="rr"/>
        <phase duration="4" state="yy"/>
    </tlLogic>

    <junction id="-1093" type="priority" x="170.85" y="583.06" incLanes="-1083.53_0 -1083.53_1 --1126_0 --2028_0" intLanes=":-1093_0_0 :-1093_1_0 :-1093_2_0 :-1093_6_0 :-1093_4_0 :-1093_5_0" shape="172.30,575.55 172.32,575.55 176.90,587.73 176.90,587.75 173.31,591.03 173.29,591.03 164.62,588.60 164.61,588.60 164.61,588.59 163.36,580.73 163.36,580.72 168.55,576.96" customShape="1">
        <request index="0" response="000000" foes="001000" cont="0"/>
        <request index="1" response="000000" foes="111000" cont="0"/>
        <request index="2" response="000000" foes="100000" cont="0"/>
        <request index="3" response="000011" foes="100011" cont="1"/>
        <request index="4" response="000010" foes="000010" cont="0"/>
        <request index="5" response="001110" foes="001110" cont="0"/>
    </junction>
    <junction id="-1119" type="priority" x="587.84" y="699.74" incLanes="--2172_0 -2219_0" intLanes=":-1119_0_0 :-1119_1_0" shape="588.55,704.24 587.47,695.20 587.86,704.29">
        <request index="0" response="00" foes="00" cont="0"/>
        <request index="1" response="00" foes="00" cont="0"/>
    </junction>
    <junction id="-1244" type="priority" x="813.74" y="477.55" incLanes="--1381_0 --618_0 -2172_0" intLanes=":-1244_0_0 :-1244_1_0 :-1244_2_0 :-1244_3_0 :-1244_4_0 :-1244_6_0" shape="809.78,472.99 809.79,472.98 809.80,472.98 818.72,474.15 818.73,474.15 822.06,478.11 822.06,478.13 816.68,485.35 816.67,485.36 813.18,485.87 813.17,485.87 805.94,480.50 805.94,480.49 805.93,480.48" customShape="1">
        <request index="0" response="001000" foes="001000" cont="0"/>
        <request index="1" response="111000" foes="111000" cont="0"/>
        <request index="2" response="000000" foes="100000" cont="0"/>
        <request index="3" response="000000" foes="100011" cont="0"/>
        <request index="4" response="000000" foes="000010" cont="0"/>
        <request index="5" response="001100" foes="001110" cont="1"/>
    </junction>
    <junction id="-1248" type="priority" x="822.45" y="212.24" incLanes="-618_0 --2197_0" intLanes=":-1248_0_0 :-1248_1_0" shape="817.95,212.94 827.00,212.01 826.85,211.08">
        <request index="0" response="00" foes="00" cont="0"/>
        <request index="1" response="00" foes="00" cont="0"/>
    </junction>