<?xml version="1.0" encoding="UTF-8"?>

<!-- generated on Fri Nov  5 14:47:52 2021 by SUMO netconvert Version 0.30.0
-->

<net version="0.27" xmlns:xsi="http://www.w3.org/2001/XMLSchema-instance" xsi:noNamespaceSchemaLocation="http://sumo.dlr.de/xsd/net_file.xsd">

    <location netOffset="381.05,417.39" convBoundary="0.00,0.00,712.88,939.61" origBoundary="-381.05,-417.39,331.83,522.23" projParameter="!"/>

    <edge id=":-1093_0" function="internal">
        <lane id=":-1093_0_0" index="0" speed="13.90" length="7.05" width="4.50" shape="127.03,176.19 126.15,174.31 125.09,172.85 123.85,171.80 122.43,171.17"/>
    </edge>
    <edge id=":-1093_1" function="internal">
        <lane id=":-1093_1_0" index="0" speed="13.90" length="12.14" width="3.50" shape="127.03,176.19 126.22,172.65 126.47,169.94 126.96,167.37 126.91,164.20"/>
    </edge>
    <edge id=":-1093_2" function="internal">
        <lane id=":-1093_2_0" index="0" speed="13.90" length="3.03" width="4.33" shape="131.18,174.63 131.62,172.69 132.32,171.93"/>
    </edge>
    <edge id=":-1093_9" function="internal">
        <lane id=":-1093_9_0" index="0" speed="13.90" length="3.45" width="4.33" shape="132.32,171.93 132.46,171.77 133.70,171.90 135.32,173.06"/>
    </edge>
    <edge id=":-1093_3" function="internal">
        <lane id=":-1093_3_0" index="0" speed="13.90" length="10.71" width="4.33" shape="130.46,163.63 131.31,166.53 132.53,168.44 133.93,170.31 135.32,173.06"/>
    </edge>
    <edge id=":-1093_4" function="internal">
        <lane id=":-1093_4_0" index="0" speed="13.90" length="8.55" width="4.50" shape="130.46,163.63 130.58,167.94 129.28,170.64 128.12,171.10"/>
    </edge>
    <edge id=":-1093_5" function="internal">
        <lane id=":-1093_5_0" index="0" speed="13.90" length="2.93" width="3.50" shape="130.46,163.63 129.79,165.10 128.97,165.69 128.68,165.60"/>
    </edge>
    <edge id=":-1093_10" function="internal">
        <lane id=":-1093_10_0" index="0" speed="13.90" length="5.84" width="4.50" shape="128.12,171.10 126.57,171.71 122.43,171.17"/>
    </edge>
    <edge id=":-1093_11" function="internal">
        <lane id=":-1093_11_0" index="0" speed="13.90" length="2.33" width="3.50" shape="128.68,165.60 128.01,165.39 126.91,164.20"/>
    </edge>
    <edge id=":-1093_6" function="internal">
        <lane id=":-1093_6_0" index="0" speed="13.90" length="5.37" width="3.50" shape="123.67,166.74 125.31,166.98 126.39,166.64 126.92,165.71 126.91,164.20"/>
    </edge>
    <edge id=":-1093_7" function="internal">
        <lane id=":-1093_7_0" index="0" speed="13.90" length="13.57" width="4.33" shape="123.67,166.74 128.28,168.22 131.76,169.76 134.11,171.38 135.32,173.06"/>
    </edge>
    <edge id=":-1093_8" function="internal">
        <lane id=":-1093_8_0" index="0" speed="13.90" length="6.72" width="4.50" shape="123.67,166.74 125.02,168.31 125.27,169.58 124.41,170.53 122.43,171.17"/>
    </edge>
    <edge id=":-1119_0" function="internal">
        <lane id=":-1119_0_0" index="0" speed="13.90" length="0.53" width="4.50" shape="10.86,588.29 10.82,587.76"/>
    </edge>
    <edge id=":-1119_1" function="internal">
        <lane id=":-1119_1_0" index="0" speed="13.90" length="3.36" width="4.50" shape="10.86,588.29 11.80,586.44 12.87,585.73"/>
    </edge>
    <edge id=":-1119_4" function="internal">
        <lane id=":-1119_4_0" index="0" speed="13.90" length="3.36" width="4.50" shape="12.87,585.73 14.08,586.16 15.43,587.74"/>
    </edge>
    <edge id=":-1119_2" function="internal">
        <lane id=":-1119_2_0" index="0" speed="13.90" length="0.18" width="4.50" shape="15.42,587.56 15.43,587.74"/>
    </edge>
    <edge id=":-1119_3" function="internal">
        <lane id=":-1119_3_0" index="0" speed="13.90" length="3.36" width="4.50" shape="15.42,587.56 14.34,589.33 13.21,589.96"/>
    </edge>
    <edge id=":-1119_5" function="internal">
        <lane id=":-1119_5_0" index="0" speed="13.90" length="3.36" width="4.50" shape="13.21,589.96 12.04,589.43 10.82,587.76"/>
    </edge>
    <edge id=":-1244_0" function="internal">
        <lane id=":-1244_0_0" index="0" speed="13.90" length="7.65" width="4.50" shape="239.01,816.54 237.64,816.68 236.18,817.42 234.62,818.78 232.97,820.74"/>
    </edge>
    <edge id=":-1244_1" function="internal">
        <lane id=":-1244_1_0" index="0" speed="13.90" length="12.05" width="4.50" shape="239.01,816.54 235.81,815.89 233.31,814.85 230.98,813.37 228.32,811.40"/>
    </edge>
    <edge id=":-1244_2" function="internal">
        <lane id=":-1244_2_0" index="0" speed="13.90" length="3.55" width="4.50" shape="239.01,816.54 237.45,815.18 237.02,813.97 237.13,813.81"/>
    </edge>
    <edge id=":-1244_9" function="internal">
        <lane id=":-1244_9_0" index="0" speed="13.90" length="3.17" width="4.50" shape="237.13,813.81 237.74,812.90 239.60,811.98"/>
    </edge>
    <edge id=":-1244_3" function="internal">
        <lane id=":-1244_3_0" index="0" speed="13.90" length="9.75" width="4.50" shape="231.06,807.71 233.34,809.49 234.99,810.69 236.81,811.46 239.60,811.98"/>
    </edge>
    <edge id=":-1244_4" function="internal">
        <lane id=":-1244_4_0" index="0" speed="13.90" length="6.85" width="4.50" shape="231.06,807.71 233.99,810.61 235.03,813.13"/>
    </edge>
    <edge id=":-1244_5" function="internal">
        <lane id=":-1244_5_0" index="0" speed="13.90" length="3.36" width="4.50" shape="231.06,807.71 231.76,809.66 231.53,810.93"/>
    </edge>
    <edge id=":-1244_10" function="internal">
        <lane id=":-1244_10_0" index="0" speed="13.90" length="8.18" width="4.50" shape="235.03,813.13 235.28,813.75 234.94,817.13 232.97,820.74"/>
    </edge>
    <edge id=":-1244_11" function="internal">
        <lane id=":-1244_11_0" index="0" speed="13.90" length="3.36" width="4.50" shape="231.53,810.93 230.39,811.51 228.32,811.40"/>
    </edge>
    <edge id=":-1244_6" function="internal">
        <lane id=":-1244_6_0" index="0" speed="13.90" length="7.60" width="4.50" shape="229.29,817.99 230.28,816.16 230.45,814.46 229.80,812.87 228.32,811.40"/>
    </edge>
    <edge id=":-1244_7" function="internal">
        <lane id=":-1244_7_0" index="0" speed="13.90" length="12.50" width="4.50" shape="229.29,817.99 231.80,815.11 234.36,813.14 236.96,812.10 239.60,811.98"/>
    </edge>
    <edge id=":-1244_8" function="internal">
        <lane id=":-1244_8_0" index="0" speed="13.90" length="6.72" width="4.50" shape="229.29,817.99 231.24,817.30 232.50,817.52 233.08,818.67 232.97,820.74"/>
    </edge>
    <edge id=":-1248_0" function="internal">
        <lane id=":-1248_0_0" index="0" speed="13.90" length="0.71" width="4.50" shape="501.33,824.65 501.12,824.69 500.98,824.72 500.83,824.74 500.62,824.76"/>
    </edge>
    <edge id=":-1248_1" function="internal">
        <lane id=":-1248_1_0" index="0" speed="13.90" length="3.36" width="4.50" shape="501.33,824.65 499.40,823.88 498.61,822.87"/>
    </edge>
    <edge id=":-1248_4" function="internal">
        <lane id=":-1248_4_0" index="0" speed="13.90" length="3.36" width="4.50" shape="498.61,822.87 498.93,821.63 500.39,820.15"/>
    </edge>
    <edge id=":-1248_2" function="internal">
        <lane id=":-1248_2_0" index="0" speed="13.90" length="0.23" width="4.50" shape="500.15,820.18 500.22,820.18 500.27,820.17 500.32,820.16 500.39,820.15"/>
    </edge>
    <edge id=":-1248_3" function="internal">
        <lane id=":-1248_3_0" index="0" speed="13.90" length="3.36" width="4.50" shape="500.15,820.18 501.99,821.15 502.68,822.24"/>
    </edge>
    <edge id=":-1248_5" function="internal">
        <lane id=":-1248_5_0" index="0" speed="13.90" length="3.36" width="4.50" shape="502.68,822.24 502.22,823.44 500.62,824.76"/>
    </edge>
    <edge id=":-1250_0" function="internal">
        <lane id=":-1250_0_0" index="0" speed="13.90" length="0.49" width="4.50" shape="677.01,787.87 676.53,787.99"/>
    </edge>
    <edge id=":-1250_1" function="internal">
        <lane id=":-1250_1_0" index="0" speed="13.90" length="3.36" width="4.50" shape="677.01,787.87 675.03,787.24 674.17,786.29"/>
    </edge>
    <edge id=":-1250_4" function="internal">
        <lane id=":-1250_4_0" index="0" speed="13.90" length="3.36" width="4.50" shape="674.17,786.29 674.40,785.03 675.74,783.45"/>
    </edge>
    <edge id=":-1250_2" function="internal">
        <lane id=":-1250_2_0" index="0" speed="13.90" length="0.16" width="4.50" shape="675.59,783.49 675.74,783.45"/>
    </edge>
    <edge id=":-1250_3" function="internal">
        <lane id=":-1250_3_0" index="0" speed="13.90" length="3.36" width="4.50" shape="675.59,783.49 677.51,784.26 678.31,785.27"/>
    </edge>
    <edge id=":-1250_5" function="internal">
        <lane id=":-1250_5_0" index="0" speed="13.90" length="3.36" width="4.50" shape="678.31,785.27 677.98,786.51 676.53,787.99"/>
    </edge>
    <edge id=":-1540_0" function="internal">
        <lane id=":-1540_0_0" index="0" speed="13.90" length="0.11" width="4.50" shape="712.02,721.33 712.02,721.44"/>
    </edge>
    <edge id=":-1540_1" function="internal">
        <lane id=":-1540_1_0" index="0" speed="13.90" length="3.36" width="4.50" shape="712.02,721.33 710.89,723.07 709.75,723.65"/>
    </edge>
    <edge id=":-1540_4" function="internal">
        <lane id=":-1540_4_0" index="0" speed="13.90" length="3.36" width="4.50" shape="709.75,723.65 708.59,723.09 707.42,721.38"/>
    </edge>
    <edge id=":-1540_2" function="internal">
        <lane id=":-1540_2_0" index="0" speed="13.90" length="0.11" width="4.50" shape="707.42,721.27 707.42,721.38"/>
    </edge>
    <edge id=":-1540_3" function="internal">
        <lane id=":-1540_3_0" index="0" speed="13.90" length="3.36" width="4.50" shape="707.42,721.27 708.63,719.59 709.80,719.06"/>
    </edge>
    <edge id=":-1540_5" function="internal">
        <lane id=":-1540_5_0" index="0" speed="13.90" length="3.36" width="4.50" shape="709.80,719.06 710.93,719.67 712.02,721.44"/>
    </edge>
    <edge id=":-2169_0" function="internal">
        <lane id=":-2169_0_0" index="0" speed="13.90" length="0.31" width="4.50" shape="-1.51,295.27 -1.52,294.96"/>
    </edge>
    <edge id=":-2169_1" function="internal">
        <lane id=":-2169_1_0" index="0" speed="13.90" length="3.36" width="4.50" shape="-1.51,295.27 -0.43,293.50 0.69,292.88"/>
    </edge>
    <edge id=":-2169_4" function="internal">
        <lane id=":-2169_4_0" index="0" speed="13.90" length="3.36" width="4.50" shape="0.69,292.88 1.86,293.41 3.09,295.08"/>
    </edge>
    <edge id=":-2169_2" function="internal">
        <lane id=":-2169_2_0" index="0" speed="13.90" length="0.28" width="4.50" shape="3.07,294.80 3.09,295.08"/>
    </edge>
    <edge id=":-2169_3" function="internal">
        <lane id=":-2169_3_0" index="0" speed="13.90" length="3.36" width="4.50" shape="3.07,294.80 1.99,296.56 0.86,297.18"/>
    </edge>
    <edge id=":-2169_5" function="internal">
        <lane id=":-2169_5_0" index="0" speed="13.90" length="3.36" width="4.50" shape="0.86,297.18 -0.31,296.65 -1.52,294.96"/>
    </edge>
    <edge id=":-38_0" function="internal">
        <lane id=":-38_0_0" index="0" speed="13.90" length="14.44" width="4.50" shape="266.81,507.48 261.80,506.28 257.88,506.03 255.03,506.74 253.27,508.41"/>
    </edge>
    <edge id=":-38_1" function="internal">
        <lane id=":-38_1_0" index="0" speed="13.90" length="21.71" width="4.33" shape="266.81,507.48 261.94,505.37 257.83,502.21 254.49,498.00 251.92,492.75"/>
    </edge>
    <edge id=":-38_2" function="internal">
        <lane id=":-38_2_0" index="0" speed="13.90" length="6.78" width="4.50" shape="266.81,507.48 265.72,505.70 265.68,504.40 266.69,503.59 268.76,503.27"/>
    </edge>
    <edge id=":-38_3" function="internal">
        <lane id=":-38_3_0" index="0" speed="13.90" length="18.30" width="4.50" shape="256.02,491.05 258.16,495.36 260.99,498.83 264.53,501.46 268.76,503.27"/>
    </edge>
    <edge id=":-38_4" function="internal">
        <lane id=":-38_4_0" index="0" speed="13.90" length="18.14" width="4.50" shape="256.02,491.05 256.92,494.97 256.76,499.17 255.54,503.64 253.27,508.41"/>
    </edge>
    <edge id=":-38_5" function="internal">
        <lane id=":-38_5_0" index="0" speed="13.90" length="3.24" width="4.33" shape="256.02,491.05 255.63,493.01 254.81,493.95"/>
    </edge>
    <edge id=":-38_9" function="internal">
        <lane id=":-38_9_0" index="0" speed="13.90" length="3.24" width="4.33" shape="254.81,493.95 253.58,493.86 251.92,492.75"/>
    </edge>
    <edge id=":-38_6" function="internal">
        <lane id=":-38_6_0" index="0" speed="13.90" length="12.68" width="4.33" shape="248.99,506.61 249.69,504.49 249.72,501.73 249.08,498.34 247.77,494.32"/>
    </edge>
    <edge id=":-38_7" function="internal">
        <lane id=":-38_7_0" index="0" speed="13.90" length="5.94" width="4.50" shape="248.99,506.61 251.94,503.42 253.43,502.86"/>
    </edge>
    <edge id=":-38_8" function="internal">
        <lane id=":-38_8_0" index="0" speed="13.90" length="3.58" width="4.50" shape="248.99,506.61 250.73,505.46 252.03,505.37 252.15,505.52"/>
    </edge>
    <edge id=":-38_10" function="internal">
        <lane id=":-38_10_0" index="0" speed="13.90" length="15.69" width="4.50" shape="253.43,502.86 256.21,501.80 261.82,501.75 268.76,503.27"/>
    </edge>
    <edge id=":-38_11" function="internal">
        <lane id=":-38_11_0" index="0" speed="13.90" length="3.19" width="4.50" shape="252.15,505.52 252.87,506.36 253.27,508.41"/>
    </edge>
    <edge id=":Custom10_0" function="internal">
        <lane id=":Custom10_0_0" index="0" speed="13.90" length="6.72" width="4.50" shape="18.93,922.06 17.65,920.44 17.46,919.17 18.36,918.25 20.35,917.69"/>
    </edge>
    <edge id=":Custom8_0" function="internal">
        <lane id=":Custom8_0_0" index="0" speed="13.90" length="6.72" width="4.50" shape="166.17,660.58 164.31,661.51 163.03,661.44 162.32,660.37 162.17,658.30"/>
    </edge>
    <edge id=":Custom9_0" function="internal">
        <lane id=":Custom9_0_0" index="0" speed="13.90" length="5.26" width="3.50" shape="296.89,-1.79 298.31,-1.01 298.84,-0.15 298.46,0.79 297.19,1.79"/>
    </edge>

    <edge id="--1083" from="-1093" to="-38" priority="-1" shape="133.25,173.85 163.44,253.37 168.58,266.93 178.53,293.14 208.71,372.67 223.80,412.43 253.99,491.96">
        <lane id="--1083_0" index="0" speed="13.90" length="340.13" width="4.33" shape="135.32,173.06 165.51,252.59 170.65,266.14 180.60,292.35 210.79,371.88 225.88,411.65 256.02,491.05"/>
    </edge>
    <edge id="--1085" from="Custom8" to="-38" priority="-1" shape="164.17,659.44 175.05,640.44 185.92,621.44 196.80,602.44 207.67,583.44 218.55,564.44 229.42,545.44 240.30,526.44 251.17,507.44">
        <lane id="--1085_0" index="0" speed="13.90" length="174.77" width="4.50" shape="162.17,658.30 173.05,639.30 183.92,620.30 194.80,601.30 205.67,582.30 216.55,563.30 227.42,544.30 238.30,525.30 248.99,506.61"/>
    </edge>
    <edge id="--1126" from="Custom9" to="-1093" priority="-1" shape="297.04,0.00 283.60,1.12 270.26,2.28 257.13,3.52 244.34,4.89 231.97,6.44 220.14,8.19 208.97,10.20 198.55,12.52 188.97,15.16 180.22,18.11 172.26,21.36 165.07,24.86 158.60,28.60 152.83,32.55 147.71,36.68 143.22,40.96 139.31,45.38 135.95,49.92 133.08,54.56 130.67,59.30 128.66,64.14 127.00,69.05 125.66,74.04 124.59,79.09 123.75,84.19 123.11,89.33 122.67,94.52 122.41,99.75 122.32,105.01 122.38,110.30 122.59,115.61 122.93,120.93 123.39,126.28 123.96,131.63 124.61,137.00 125.33,142.37 126.12,147.75 126.95,153.13 127.81,158.52 128.68,163.91">
        <lane id="--1126_0" index="0" speed="13.90" length="287.87" width="3.50" shape="297.19,1.79 283.75,2.91 270.42,4.07 257.31,5.31 244.54,6.68 232.21,8.22 220.44,9.97 209.32,11.97 198.98,14.26 189.49,16.88 180.84,19.80 173.00,23.00 165.91,26.45 159.56,30.12 153.90,33.99 148.90,38.03 144.52,42.21 140.71,46.51 137.44,50.93 134.65,55.44 132.30,60.06 130.34,64.77 128.73,69.57 127.42,74.46 126.36,79.42 125.53,84.44 124.90,89.52 124.46,94.64 124.20,99.81 124.12,105.01 124.18,110.25 124.39,115.51 124.73,120.80 125.18,126.11 125.74,131.43 126.39,136.77 127.12,142.12 127.90,147.48 128.73,152.85 129.59,158.24 130.46,163.63"/>
    </edge>
    <edge id="--1381" from="Custom10" to="-1244" priority="-1" shape="19.64,919.88 28.85,922.87 38.01,925.80 47.08,928.61 56.02,931.23 64.77,933.62 73.29,935.69 81.53,937.41 89.46,938.69 97.05,939.47 104.39,939.61 111.60,938.96 118.80,937.36 126.11,934.65 133.64,930.68 141.52,925.30 149.86,918.35 158.75,909.74 168.15,899.63 177.98,888.22 188.17,875.74 198.66,862.40 209.36,848.42 220.21,834.00 231.13,819.37">
        <lane id="--1381_0" index="0" speed="13.90" length="264.06" width="4.50" shape="20.35,917.69 29.56,920.68 38.70,923.60 47.75,926.41 56.64,929.02 65.34,931.39 73.79,933.45 81.95,935.14 89.76,936.41 97.19,937.18 104.31,937.31 111.25,936.68 118.15,935.14 125.17,932.54 132.46,928.70 140.13,923.46 148.32,916.64 157.11,908.13 166.43,898.09 176.22,886.75 186.38,874.31 196.84,860.99 207.53,847.03 218.37,832.62 229.29,817.99"/>
    </edge>
    <edge id="--2028" from="-2169" to="-1093" priority="-1" shape="0.78,295.03 0.45,285.92 0.18,276.87 0.01,267.93 0.00,259.17 0.20,250.63 0.66,242.39 1.44,234.50 2.59,227.01 4.14,219.97 6.12,213.37 8.49,207.19 11.27,201.41 14.44,196.01 18.00,190.96 21.93,186.25 26.23,181.85 30.90,177.75 35.89,173.98 41.18,170.59 46.72,167.61 52.50,165.08 58.46,163.06 64.58,161.56 70.83,160.65 77.16,160.33 83.58,160.56 90.05,161.25 96.59,162.33 103.16,163.71 109.78,165.33 116.41,167.11 123.05,168.96">
        <lane id="--2028_0" index="0" speed="13.90" length="227.65" width="4.50" shape="-1.52,294.96 -1.84,285.99 -2.12,276.92 -2.29,267.95 -2.30,259.14 -2.10,250.54 -1.63,242.21 -0.84,234.21 0.32,226.58 1.92,219.39 3.94,212.63 6.38,206.28 9.24,200.33 12.51,194.76 16.17,189.56 20.22,184.71 24.65,180.18 29.44,175.97 34.57,172.10 40.01,168.61 45.72,165.54 51.66,162.94 57.82,160.84 64.14,159.30 70.60,158.36 77.15,158.03 83.74,158.26 90.36,158.97 97.01,160.07 103.68,161.47 110.35,163.10 117.01,164.89 123.67,166.74"/>
    </edge>
    <edge id="--2144" from="-38" to="-1540" priority="-1" shape="267.72,505.35 279.26,508.85 290.80,512.35 302.31,515.84 313.80,519.32 325.25,522.79 336.65,526.25 347.99,529.69 359.26,533.11 370.46,536.51 381.57,539.89 392.58,543.24 403.49,546.57 414.28,549.86 424.95,553.11 435.48,556.33 445.87,559.51 456.10,562.65 466.17,565.74 476.07,568.79 485.78,571.78 495.30,574.72 504.62,577.61 513.73,580.44 522.61,583.20 531.27,585.91 539.68,588.55 547.84,591.11 555.74,593.61 563.37,596.03 570.73,598.38 577.79,600.65 584.55,602.83 591.01,604.93 597.17,606.95 603.04,608.89 608.63,610.75 613.94,612.54 618.98,614.26 623.77,615.91 628.31,617.50 632.61,619.02 636.68,620.49 640.53,621.90 644.16,623.25 647.59,624.56 650.82,625.81 653.86,627.02 656.72,628.19 659.41,629.32 661.93,630.41 664.31,631.47 666.53,632.50 668.62,633.50 670.58,634.47 672.42,635.42 674.15,636.35 675.77,637.27 677.31,638.17 678.75,639.05 680.12,639.93 681.42,640.81 682.65,641.68 683.84,642.55 684.98,643.42 686.09,644.30 687.17,645.19 688.20,646.08 689.21,646.98 690.19,647.88 691.13,648.79 692.04,649.71 692.92,650.64 693.77,651.58 694.59,652.52 695.38,653.48 696.14,654.44 696.88,655.41 697.58,656.40 698.26,657.39 698.92,658.39 699.54,659.41 700.15,660.44 700.72,661.47 701.28,662.52 701.80,663.59 702.31,664.66 702.79,665.75 703.25,666.86 703.69,667.97 704.11,669.11 704.51,670.25 704.89,671.41 705.24,672.59 705.58,673.78 705.90,674.99 706.21,676.21 706.49,677.45 706.76,678.71 707.01,679.98 707.25,681.27 707.47,682.57 707.68,683.89 707.87,685.22 708.05,686.56 708.22,687.92 708.37,689.29 708.52,690.66 708.65,692.05 708.77,693.45 708.88,694.87 708.98,696.28 709.07,697.71 709.15,699.15 709.23,700.60 709.29,702.05 709.35,703.51 709.41,704.97 709.45,706.44 709.50,707.92 709.53,709.40 709.57,710.89 709.59,712.37 709.62,713.87 709.64,715.36 709.66,716.86 709.68,718.36 709.70,719.85 709.72,721.35">
        <lane id="--2144_0" index="0" speed="13.90" length="527.99" width="4.50" shape="268.76,503.27 279.93,506.65 291.46,510.15 302.98,513.63 314.47,517.12 325.91,520.59 337.31,524.05 348.66,527.49 359.93,530.91 371.13,534.31 382.24,537.69 393.25,541.04 404.16,544.37 414.96,547.66 425.62,550.91 436.16,554.13 446.54,557.31 456.78,560.45 466.85,563.55 476.75,566.59 486.46,569.59 495.98,572.53 505.30,575.41 514.41,578.24 523.30,581.01 531.95,583.71 540.37,586.35 548.53,588.92 556.44,591.42 564.07,593.84 571.43,596.19 578.49,598.46 585.26,600.64 591.73,602.74 597.89,604.76 603.77,606.71 609.36,608.57 614.68,610.36 619.73,612.09 624.53,613.74 629.08,615.33 633.39,616.86 637.47,618.33 641.33,619.74 644.97,621.10 648.41,622.41 651.66,623.67 654.72,624.89 657.60,626.07 660.31,627.21 662.86,628.31 665.26,629.38 667.51,630.42 669.63,631.43 671.62,632.42 673.49,633.39 675.26,634.34 676.92,635.27 678.49,636.20 679.97,637.11 681.38,638.01 682.72,638.91 684.00,639.81 685.22,640.71 686.40,641.61 687.54,642.52 688.64,643.43 689.72,644.35 690.76,645.28 691.77,646.21 692.75,647.16 693.69,648.11 694.61,649.08 695.49,650.05 696.34,651.03 697.17,652.03 697.96,653.03 698.73,654.05 699.47,655.07 700.18,656.11 700.86,657.16 701.51,658.22 702.14,659.30 702.75,660.38 703.32,661.48 703.87,662.59 704.40,663.71 704.91,664.84 705.38,665.99 705.84,667.15 706.28,668.33 706.69,669.52 707.08,670.72 707.45,671.94 707.80,673.17 708.13,674.42 708.44,675.68 708.74,676.95 709.01,678.25 709.27,679.55 709.51,680.87 709.74,682.20 709.95,683.54 710.15,684.90 710.33,686.27 710.50,687.65 710.66,689.04 710.80,690.44 710.94,691.85 711.06,693.27 711.17,694.69 711.27,696.13 711.36,697.57 711.45,699.03 711.52,700.48 711.59,701.95 711.65,703.42 711.70,704.89 711.75,706.37 711.79,707.86 711.83,709.35 711.86,710.84 711.89,712.33 711.92,713.83 711.94,715.33 711.96,716.83 711.98,718.33 712.00,719.83 712.02,721.33"/>
    </edge>
    <edge id="--2172" from="-1244" to="-1119" priority="-1" shape="229.69,809.56 208.89,794.10 188.32,778.76 168.23,763.66 148.84,748.90 130.40,734.62 113.14,720.92 97.30,707.92 83.11,695.74 70.74,684.46 60.11,674.07 51.06,664.49 43.43,655.67 37.08,647.55 31.84,640.08 27.57,633.19 24.10,626.82 21.30,620.93 19.07,615.44 17.33,610.30 16.00,605.46 14.99,600.85 14.23,596.41 13.64,592.10 13.13,587.84">
        <lane id="--2172_0" index="0" speed="13.90" length="319.32" width="4.50" shape="228.32,811.40 207.51,795.95 186.94,780.60 166.84,765.49 147.44,750.73 128.98,736.43 111.70,722.71 95.82,709.68 81.58,697.46 69.16,686.14 58.47,675.68 49.35,666.03 41.66,657.13 35.23,648.92 29.92,641.34 25.58,634.34 22.05,627.87 19.19,621.85 16.91,616.24 15.13,610.98 13.76,606.01 12.73,601.29 11.96,596.77 11.36,592.39 10.86,588.29"/>
    </edge>
    <edge id="--2191" from="-1540" to="-1250" priority="-1" shape="709.72,721.35 709.70,721.77 709.69,722.19 709.67,722.61 709.66,723.03 709.65,723.45 709.63,723.87 709.62,724.30 709.62,724.73 709.61,725.17 709.61,725.60 709.60,726.05 709.61,726.49 709.61,726.95 709.62,727.41 709.63,727.87 709.65,728.34 709.67,728.82 709.69,729.31 709.72,729.81 709.75,730.31 709.79,730.83 709.84,731.35 709.89,731.89 709.94,732.43 710.00,732.99 710.07,733.55 710.15,734.13 710.23,734.73 710.32,735.33 710.42,735.95 710.52,736.58 710.64,737.23 710.76,737.89 710.89,738.56 711.02,739.25 711.16,739.95 711.30,740.67 711.44,741.39 711.58,742.12 711.73,742.87 711.87,743.62 712.00,744.38 712.13,745.14 712.26,745.92 712.37,746.69 712.48,747.48 712.58,748.27 712.67,749.06 712.74,749.85 712.80,750.64 712.84,751.44 712.87,752.24 712.88,753.03 712.87,753.83 712.83,754.62 712.78,755.41 712.70,756.19 712.60,756.98 712.47,757.75 712.31,758.52 712.13,759.29 711.91,760.04 711.67,760.79 711.39,761.53 711.07,762.26 710.73,762.98 710.35,763.69 709.94,764.39 709.50,765.08 709.04,765.76 708.55,766.42 708.04,767.08 707.51,767.73 706.95,768.36 706.38,768.99 705.78,769.60 705.17,770.20 704.55,770.79 703.91,771.37 703.26,771.94 702.60,772.49 701.93,773.04 701.25,773.57 700.57,774.08 699.88,774.59 699.18,775.08 698.49,775.56 697.79,776.03 697.10,776.48 696.41,776.93 695.72,777.35 695.03,777.77 694.36,778.17 693.69,778.55 693.03,778.93 692.39,779.29 691.75,779.63 691.13,779.96 690.52,780.28 689.92,780.58 689.33,780.88 688.76,781.16 688.19,781.43 687.63,781.68 687.09,781.93 686.55,782.17 686.02,782.40 685.50,782.61 684.99,782.82 684.48,783.02 683.98,783.22 683.49,783.40 683.00,783.58 682.53,783.75 682.05,783.92 681.58,784.08 681.12,784.23 680.66,784.38 680.20,784.53 679.75,784.67 679.30,784.80 678.86,784.94 678.41,785.07 677.97,785.20 677.53,785.33 677.09,785.45 676.66,785.58 676.22,785.70">
        <lane id="--2191_0" index="0" speed="13.90" length="87.25" width="4.50" shape="712.02,721.44 712.00,721.86 711.99,722.27 711.97,722.69 711.96,723.10 711.95,723.52 711.93,723.93 711.92,724.35 711.92,724.77 711.91,725.19 711.91,725.62 711.90,726.05 711.91,726.48 711.91,726.91 711.92,727.36 711.93,727.81 711.94,728.26 711.96,728.72 711.99,729.19 712.01,729.67 712.05,730.15 712.08,730.64 712.13,731.15 712.17,731.66 712.23,732.19 712.29,732.72 712.35,733.27 712.43,733.83 712.51,734.40 712.59,734.98 712.69,735.58 712.79,736.19 712.90,736.82 713.02,737.47 713.14,738.13 713.28,738.81 713.41,739.51 713.55,740.22 713.70,740.95 713.84,741.69 713.99,742.44 714.13,743.20 714.27,743.98 714.40,744.77 714.53,745.56 714.65,746.37 714.76,747.18 714.87,748.00 714.96,748.83 715.03,749.66 715.09,750.50 715.14,751.34 715.17,752.19 715.18,753.04 715.17,753.89 715.13,754.74 715.07,755.60 714.99,756.46 714.87,757.31 714.73,758.17 714.56,759.02 714.35,759.87 714.11,760.72 713.83,761.56 713.52,762.39 713.17,763.21 712.78,764.02 712.36,764.81 711.91,765.58 711.43,766.34 710.92,767.08 710.39,767.81 709.84,768.52 709.26,769.22 708.66,769.90 708.05,770.57 707.42,771.22 706.77,771.86 706.11,772.48 705.44,773.09 704.76,773.69 704.06,774.27 703.36,774.84 702.65,775.39 701.94,775.93 701.22,776.45 700.50,776.97 699.78,777.46 699.06,777.95 698.34,778.42 697.63,778.87 696.92,779.31 696.22,779.74 695.52,780.15 694.83,780.55 694.16,780.93 693.49,781.30 692.84,781.66 692.20,782.00 691.57,782.32 690.96,782.64 690.35,782.94 689.75,783.23 689.17,783.51 688.59,783.78 688.02,784.03 687.47,784.28 686.92,784.51 686.38,784.74 685.84,784.96 685.32,785.17 684.80,785.37 684.29,785.56 683.79,785.74 683.29,785.92 682.80,786.09 682.32,786.26 681.84,786.42 681.36,786.57 680.90,786.72 680.43,786.86 679.97,787.01 679.52,787.14 679.07,787.28 678.62,787.41 678.17,787.54 677.73,787.66 677.29,787.79 677.01,787.87"/>
    </edge>
    <edge id="--2197" from="-1250" to="-1248" priority="-1" shape="676.22,785.70 500.63,822.45">
        <lane id="--2197_0" index="0" speed="13.90" length="178.99" width="4.50" shape="676.53,787.99 501.33,824.65"/>
    </edge>
    <edge id="--2219" from="-1119" to="-2169" priority="-1" shape="13.13,587.84 0.78,295.03">
        <lane id="--2219_0" index="0" speed="13.90" length="292.74" width="4.50" shape="10.82,587.76 -1.51,295.27"/>
    </edge>
    <edge id="--618" from="-1248" to="-1244" priority="-1" shape="500.63,822.45 464.09,826.19 425.94,828.75 384.54,828.96 338.83,826.02 289.88,820.73 239.31,814.26">
        <lane id="--618_0" index="0" speed="13.90" length="262.68" width="4.50" shape="500.62,824.76 464.28,828.48 426.02,831.05 384.47,831.26 338.63,828.31 289.61,823.01 239.01,816.54"/>
    </edge>
    <edge id="-1083" from="-38" to="-1093" priority="-1" shape="253.99,491.96 223.80,412.43 208.71,372.67 178.53,293.14 168.58,266.93 163.44,253.37 133.25,173.85">
        <lane id="-1083_0" index="0" speed="13.90" length="340.26" width="4.33" shape="247.77,494.32 217.59,414.79 202.50,375.03 172.31,295.50 162.36,269.29 157.22,255.73 127.03,176.19"/>
        <lane id="-1083_1" index="1" speed="13.90" length="340.26" width="4.33" shape="251.92,492.75 221.73,413.22 206.64,373.45 176.46,293.93 166.51,267.72 161.36,254.16 131.18,174.63"/>
    </edge>
    <edge id="-1085" from="-38" to="Custom8" priority="-1" shape="251.17,507.44 240.30,526.44 229.42,545.44 218.55,564.44 207.67,583.44 196.80,602.44 185.92,621.44 175.05,640.44 164.17,659.44">
        <lane id="-1085_0" index="0" speed="13.90" length="175.34" width="4.50" shape="253.27,508.41 242.29,527.58 231.42,546.58 220.54,565.58 209.67,584.58 198.79,603.58 187.92,622.58 177.04,641.58 166.17,660.58"/>
    </edge>
    <edge id="-1126" from="-1093" to="Custom9" priority="-1" shape="128.68,163.91 127.81,158.52 126.95,153.13 126.12,147.75 125.33,142.37 124.61,137.00 123.96,131.63 123.39,126.28 122.93,120.93 122.59,115.61 122.38,110.30 122.32,105.01 122.41,99.75 122.67,94.52 123.11,89.33 123.75,84.19 124.59,79.09 125.66,74.04 127.00,69.05 128.66,64.14 130.67,59.30 133.08,54.56 135.95,49.92 139.31,45.38 143.22,40.96 147.71,36.68 152.83,32.55 158.60,28.60 165.07,24.86 172.26,21.36 180.22,18.11 188.97,15.16 198.55,12.52 208.97,10.20 220.14,8.19 231.97,6.44 244.34,4.89 257.13,3.52 270.26,2.28 283.60,1.12 297.04,0.00">
        <lane id="-1126_0" index="0" speed="13.90" length="293.81" width="3.50" shape="126.91,164.20 126.03,158.81 125.17,153.41 124.34,148.02 123.55,142.62 122.82,137.23 122.17,131.83 121.60,126.45 121.14,121.07 120.79,115.70 120.58,110.34 120.51,105.00 120.61,99.69 120.87,94.40 121.32,89.15 121.96,83.93 122.82,78.75 123.91,73.62 125.28,68.53 126.97,63.51 129.03,58.55 131.51,53.68 134.46,48.90 137.91,44.25 141.92,39.71 146.52,35.33 151.75,31.10 157.64,27.08 164.22,23.27 171.53,19.71 179.59,16.42 188.44,13.43 198.11,10.77 208.61,8.44 219.85,6.42 231.73,4.65 244.13,3.10 256.95,1.73 270.09,0.48 283.44,-0.68 296.89,-1.79"/>
    </edge>
    <edge id="-1381" from="-1244" to="Custom10" priority="-1" shape="231.13,819.37 220.21,834.00 209.36,848.42 198.66,862.40 188.17,875.74 177.98,888.22 168.15,899.63 158.75,909.74 149.86,918.35 141.52,925.30 133.64,930.68 126.11,934.65 118.80,937.36 111.60,938.96 104.39,939.61 97.05,939.47 89.46,938.69 81.53,937.41 73.29,935.69 64.77,933.62 56.02,931.23 47.08,928.61 38.01,925.80 28.85,922.87 19.64,919.88">