<routes xmlns:xsi="http://www.w3.org/2001/XMLSchema-instance" xsi:noNamespaceSchemaLocation="http://sumo.dlr.de/xsd/routes_file.xsd">
  <route id="0" edges="0"/>
  <vType id="car" minGap="5"/>
  <vType id="bus" accel="0.8" decel="4.5" sigma="0.8" length="10" minGap="8" maxSpeed="20" guiShape="bus" vClass="bus"/>
  <vType id="motorcycle" accel="1.2" decel="4.5" sigma="0.5" length="3" minGap="1.5" maxSpeed="25" guiShape="motorcycle" vClass="motorcycle"/>
  <vType id="trailer" accel="0.8" decel="4.5" sigma="0.8" length="14" minGap="8" maxSpeed="20" guiShape="truck" vClass="trailer"/>
  <vType id="truck" accel="0.8" decel="4.5" sigma="0.5" length="8" minGap="8" maxSpeed="25" guiShape="truck" vClass="truck"/>
  <vehicle id="0" type="truck" route="0" depart="0" departLane="free" departPos="1500.000000" departSpeed="max"/>
  <vehicle id="1" type="car" route="0" depart="0" departLane="free" departPos="1470.000000" departSpeed="max"/>
  <vehicle id="2" type="car" route="0" depart="0" departLane="free" departPos="1440.000000" departSpeed="max"/>
  <vehicle id="3" type="car" route="0" depart="0" departLane="free" departPos="1410.000000" departSpeed="max"/>
  <vehicle id="4" type="car" route="0" depart="0" departLane="free" departPos="1380.000000" departSpeed="max"/>
  <vehicle id="5" type="car" route="0" depart="0" departLane="free" departPos="1350.000000" departSpeed="max"/>
  <vehicle id="6" type="car" route="0" depart="0" departLane="free" departPos="1320.000000" departSpeed="max"/>
  <vehicle id="7" type="car" route="0" depart="0" departLane="free" departPos="1290.000000" departSpeed="max"/>
  <vehicle id="8" type="car" route="0" depart="0" departLane="free" departPos="1260.000000" departSpeed="max"/>
  <vehicle id="9" type="car" route="0" depart="0" departLane="free" departPos="1230.000000" departSpeed="max"/>
  <vehicle id="10" type="motorcycle" route="0" depart="0" departLane="free" departPos="1200.000000" departSpeed="max"/>
  <vehicle id="11" type="car" route="0" depart="0" departLane="free" departPos="1170.000000" departSpeed="max"/>
  <vehicle id="12" type="car" route="0" depart="0" departLane="free" departPos="1140.000000" departSpeed="max"/>
  <vehicle id="13" type="car" route="0" depart="0" departLane="free" departPos="1110.000000" departSpeed="max"/>
  <vehicle id="14" type="car" route="0" depart="0" departLane="free" departPos="1080.000000" departSpeed="max"/>
  <vehicle id="15" type="trailer" route="0" depart="0" departLane="free" departPos="1050.000000" departSpeed="max"/>
  <vehicle id="16" type="bus" route="0" depart="0" departLane="free" departPos="1020.000000" departSpeed="max"/>
  <vehicle id="17" type="car" route="0" depart="0" departLane="free" departPos="990.000000" departSpeed="max"/>
  <vehicle id="18" type="car" route="0" depart="0" departLane="free" departPos="960.000000" departSpeed="max"/>
  <vehicle id="19" type="car" route="0" depart="0" departLane="free" departPos="930.000000" departSpeed="max"/>
  <vehicle id="20" type="motorcycle" route="0" depart="0" departLane="free" departPos="900.000000" departSpeed="max"/>
  <vehicle id="21" type="car" route="0" depart="0" departLane="free" departPos="870.000000" departSpeed="max"/>
  <vehicle id="22" type="car" route="0" depart="0" departLane="free" departPos="840.000000" departSpeed="max"/>
  <vehicle id="23" type="car" route="0" depart="0" departLane="free" departPos="810.000000" departSpeed="max"/>
  <vehicle id="24" type="car" route="0" depart="0" departLane="free" departPos="780.000000" departSpeed="max"/>
  <vehicle id="25" type="car" route="0" depart="0" departLane="free" departPos="750.000000" departSpeed="max"/>
  <vehicle id="26" type="car" route="0" depart="0" departLane="free" departPos="720.000000" departSpeed="max"/>
  <vehicle id="27" type="car" route="0" depart="0" departLane="free" departPos="690.000000" departSpeed="max"/>
  <vehicle id="28" type="car" route="0" depart="0" departLane="free" departPos="660.000000" departSpeed="max"/>
  <vehicle id="29" type="car" route="0" depart="0" departLane="free" departPos="630.000000" departSpeed="max"/>
  <vehicle id="30" type="trailer" route="0" depart="0" departLane="free" departPos="600.000000" departSpeed="max"/>
  <vehicle id="31" type="car" route="0" depart="0" departLane="free" departPos="570.000000" departSpeed="max"/>
  <vehicle id="32" type="bus" route="0" depart="0" departLane="free" departPos="540.000000" departSpeed="max"/>
  <vehicle id="33" type="car" route="0" depart="0" departLane="free" departPos="510.000000" departSpeed="max"/>
  <vehicle id="34" type="car" route="0" depart="0" departLane="free" departPos="480.000000" departSpeed="max"/>
  <vehicle id="35" type="car" route="0" depart="0" departLane="free" departPos="450.000000" departSpeed="max"/>
  <vehicle id="36" type="car" route="0" depart="0" departLane="free" departPos="420.000000" departSpeed="max"/>
  <vehicle id="37" type="car" route="0" depart="0" departLane="free" departPos="390.000000" departSpeed="max"/>
  <vehicle id="38" type="car" route="0" depart="0" departLane="free" departPos="360.000000" departSpeed="max"/>
  <vehicle id="39" type="car" route="0" depart="0" departLane="free" departPos="330.000000" departSpeed="max"/>
  <vehicle id="40" type="truck" route="0" depart="0" departLane="free" departPos="300.000000" departSpeed="max"/>
  <vehicle id="41" type="car" route="0" depart="0" departLane="free" departPos="270.000000" departSpeed="max"/>
  <vehicle id="42" type="car" route="0" depart="0" departLane="free" departPos="240.000000" departSpeed="max"/>
  <vehicle id="43" type="car" route="0" depart="0" departLane="free" departPos="210.000000" departSpeed="max"/>
  <vehicle id="44" type="car" route="0" depart="0" departLane="free" departPos="180.000000" departSpeed="max"/>
  <vehicle id="45" type="trailer" route="0" depart="0" departLane="free" departPos="150.000000" departSpeed="max"/>
  <vehicle id="46" type="car" route="0" depart="0" departLane="free" departPos="120.000000" departSpeed="max"/>
  <vehicle id="47" type="car" route="0" depart="0" departLane="free" departPos="90.000000" departSpeed="max"/>
  <vehicle id="48" type="bus" route="0" depart="0" departLane="free" departPos="60.000000" departSpeed="max"/>
  <vehicle id="49" type="car" route="0" depart="0" departLane="free" departPos="30.000000" departSpeed="max"/>
  <vehicle id="50" type="motorcycle" route="0" depart="0.000000" departLane="random"/>
  <vehicle id="51" type="car" route="0" depart="0.800000" departLane="random"/>
  <vehicle id="52" type="car" route="0" depart="1.600000" departLane="random"/>
  <vehicle id="53" type="car" route="0" depart="2.400000" departLane="random"/>
  <vehicle id="54" type="car" route="0" depart="3.200000" departLane="random"/>
  <vehicle id="55" type="car" route="0" depart="4.000000" departLane="random"/>
  <vehicle id="56" type="car" route="0" depart="4.800000" departLane="random"/>
  <vehicle id="57" type="car" route="0" depart="5.600000" departLane="random"/>
  <vehicle id="58" type="car" route="0" depart="6.400000" departLane="random"/>
  <vehicle id="59" type="car" route="0" depart="7.200000" departLane="random"/>
  <vehicle id="60" type="trailer" route="0" depart="8.000000" departLane="random"/>
  <vehicle id="61" type="car" route="0" depart="8.800000" departLane="random"/>
  <vehicle id="62" type="car" route="0" depart="9.600000" departLane="random"/>
  <vehicle id="63" type="car" route="0" depart="10.400000" departLane="random"/>
  <vehicle id="64" type="bus" route="0" depart="11.200000" departLane="random"/>
  <vehicle id="65" type="car" route="0" depart="12.000000" departLane="random"/>
  <vehicle id="66" type="car" route="0" depart="12.800000" departLane="random"/>
  <vehicle id="67" type="car" route="0" depart="13.600000" departLane="random"/>
  <vehicle id="68" type="car" route="0" depart="14.400000" departLane="random"/>
  <vehicle id="69" type="car" route="0" depart="15.200000" departLane="random"/>
  <vehicle id="70" type="motorcycle" route="0" depart="16.000000" departLane="random"/>
  <vehicle id="71" type="car" route="0" depart="16.800000" departLane="random"/>
  <vehicle id="72" type="car" route="0" depart="17.600000" departLane="random"/>
  <vehicle id="73" type="car" route="0" depart="18.400000" departLane="random"/>
  <vehicle id="74" type="car" route="0" depart="19.200000" departLane="random"/>
  <vehicle id="75" type="trailer" route="0" depart="20.000000" departLane="random"/>
  <vehicle id="76" type="car" route="0" depart="20.800000" departLane="random"/>
  <vehicle id="77" type="car" route="0" depart="21.600000" departLane="random"/>
  <vehicle id="78" type="car" route="0" depart="22.400000" departLane="random"/>
  <vehicle id="79" type="car" route="0" depart="23.200000" departLane="random"/>
  <vehicle id="80" type="truck" route="0" depart="24.000000" departLane="random"/>
  <vehicle id="81" type="car" route="0" depart="24.800000" departLane="random"/>
  <vehicle id="82" type="car" route="0" depart="25.600000" departLane="random"/>
  <vehicle id="83" type="car" route="0" depart="26.400000" departLane="random"/>
  <vehicle id="84" type="car" route="0" depart="27.200000" departLane="random"/>
  <vehicle id="85" type="car" route="0" depart="28.000000" departLane="random"/>
  <vehicle id="86" type="car" route="0" depart="28.800000" departLane="random"/>
  <vehicle id="87" type="car" route="0" depart="29.600000" departLane="random"/>
  <vehicle id="88" type="car" route="0" depart="30.400000" departLane="random"/>
  <vehicle id="89" type="car" route="0" depart="31.200000" departLane="random"/>
  <vehicle id="90" type="trailer" route="0" depart="32.000000" departLane="random"/>
  <vehicle id="91" type="car" route="0" depart="32.800000" departLane="random"/>
  <vehicle id="92" type="car" route="0" depart="33.600000" departLane="random"/>
  <vehicle id="93" type="car" route="0" depart="34.400000" departLane="random"/>
  <vehicle id="94" type="car" route="0" depart="35.200000" departLane="random"/>
  <vehicle id="95" type="car" route="0" depart="36.000000" departLane="random"/>
  <vehicle id="96" type="bus" route="0" depart="36.800000" departLane="random"/>
  <vehicle id="97" type="car" route="0" depart="37.600000" departLane="random"/>
  <vehicle id="98" type="car" route="0" depart="38.400000" departLane="random"/>
  <vehicle id="99" type="car" route="0" depart="39.200000" departLane="random"/>
  <vehicle id="100" type="motorcycle" route="0" depart="40.000000" departLane="random"/>
  <vehicle id="101" type="car" route="0" depart="40.800000" departLane="random"/>
  <vehicle id="102" type="car" route="0" depart="41.600000" departLane="random"/>
  <vehicle id="103" type="car" route="0" depart="42.400000" departLane="random"/>
  <vehicle id="104" type="car" route="0" depart="43.200000" departLane="random"/>
  <vehicle id="105" type="trailer" route="0" depart="44.000000" departLane="random"/>
  <vehicle id="106" type="car" route="0" depart="44.800000" departLane="random"/>
  <vehicle id="107" type="car" route="0" depart="45.600000" departLane="random"/>
  <vehicle id="108" type="car" route="0" depart="46.400000" departLane="random"/>
  <vehicle id="109" type="car" route="0" depart="47.200000" departLane="random"/>
  <vehicle id="110" type="motorcycle" route="0" depart="48.000000" departLane="random"/>
  <vehicle id="111" type="car" route="0" depart="48.800000" departLane="random"/>
  <vehicle id="112" type="bus" route="0" depart="49.600000" departLane="random"/>
  <vehicle id="113" type="car" route="0" depart="50.400000" departLane="random"/>
  <vehicle id="114" type="car" route="0" depart="51.200000" departLane="random"/>
  <vehicle id="115" type="car" route="0" depart="52.000000" departLane="random"/>
  <vehicle id="116" type="car" route="0" depart="52.800000" departLane="random"/>
  <vehicle id="117" type="car" route="0" depart="53.600000" departLane="random"/>
  <vehicle id="118" type="car" route="0" depart="54.400000" departLane="random"/>
  <vehicle id="119" type="car" route="0" depart="55.200000" departLane="random"/>
  <vehicle id="120" type="truck" route="0" depart="56.000000" departLane="random"/>
  <vehicle id="121" type="car" route="0" depart="56.800000" departLane="random"/>
  <vehicle id="122" type="car" route="0" depart="57.600000" departLane="random"/>
  <vehicle id="123" type="car" route="0" depart="58.400000" departLane="random"/>
  <vehicle id="124" type="car" route="0" depart="59.200000" departLane="random"/>
  <vehicle id="125" type="car" route="0" depart="60.000000" departLane="random"/>
  <vehicle id="126" type="car" route="0" depart="60.800000" departLane="random"/>
  <vehicle id="127" type="car" route="0" depart="61.600000" departLane="random"/>
  <vehicle id="128" type="bus" route="0" depart="62.400000" departLane="random"/>
  <vehicle id="129" type="car" route="0" depart="63.200000" departLane="random"/>
  <vehicle id="130" type="motorcycle" route="0" depart="64.000000" departLane="random"/>
  <vehicle id="131" type="car" route="0" depart="64.800000" departLane="random"/>
  <vehicle id="132" type="car" route="0" depart="65.600000" departLane="random"/>
  <vehicle id="133" type="car" route="0" depart="66.400000" departLane="random"/>
  <vehicle id="134" type="car" route="0" depart="67.200000" departLane="random"/>
  <vehicle id="135" type="trailer" route="0" depart="68.000000" departLane="random"/>
  <vehicle id="136" type="car" route="0" depart="68.800000" departLane="random"/>
  <vehicle id="137" type="car" route="0" depart="69.600000" departLane="random"/>
  <vehicle id="138" type="car" route="0" depart="70.400000" departLane="random"/>
  <vehicle id="139" type="car" route="0" depart="71.200000" departLane="random"/>
  <vehicle id="140" type="motorcycle" route="0" depart="72.000000" departLane="random"/>
  <vehicle id="141" type="car" route="0" depart="72.800000" departLane="random"/>
  <vehicle id="142" type="car" route="0" depart="73.600000" departLane="random"/>
  <vehicle id="143" type="car" route="0" depart="74.400000" departLane="random"/>
  <vehicle id="144" type="bus" route="0" depart="75.200000" departLane="random"/>
  <vehicle id="145" type="car" route="0" depart="76.000000" departLane="random"/>
  <vehicle id="146" type="car" route="0" depart="76.800000" departLane="random"/>
  <vehicle id="147" type="car" route="0" depart="77.600000" departLane="random"/>
  <vehicle id="148" type="car" route="0" depart="78.400000" departLane="random"/>
  <vehicle id="149" type="car" route="0" depart="79.200000" departLane="random"/>
  <vehicle id="150" type="trailer" route="0" depart="80.000000" departLane="random"/>
  <vehicle id="151" type="car" route="0" depart="80.800000" departLane="random"/>
  <vehicle id="152" type="car" route="0" depart="81.600000" departLane="random"/>
  <vehicle id="153" type="car" route="0" depart="82.400000" departLane="random"/>
  <vehicle id="154" type="car" route="0" depart="83.200000" departLane="random"/>
  <vehicle id="155" type="car" route="0" depart="84.000000" departLane="random"/>
  <vehicle id="156" type="car" route="0" depart="84.800000" departLane="random"/>
  <vehicle id="157" type="car" route="0" depart="85.600000" departLane="random"/>
  <vehicle id="158" type="car" route="0" depart="86.400000" departLane="random"/>
  <vehicle id="159" type="car" route="0" depart="87.200000" departLane="random"/>
  <vehicle id="160" type="truck" route="0" depart="88.000000" departLane="random"/>
  <vehicle id="161" type="car" route="0" depart="88.800000" departLane="random"/>
  <vehicle id="162" type="car" route="0" depart="89.600000" departLane="random"/>
  <vehicle id="163" type="car" route="0" depart="90.400000" departLane="random"/>
  <vehicle id="164" type="car" route="0" depart="91.200000" departLane="random"/>
  <vehicle id="165" type="trailer" route="0" depart="92.000000" departLane="random"/>
  <vehicle id="166" type="car" route="0" depart="92.800000" departLane="random"/>
  <vehicle id="167" type="car" route="0" depart="93.600000" departLane="random"/>
  <vehicle id="168" type="car" route="0" depart="94.400000" departLane="random"/>
  <vehicle id="169" type="car" route="0" depart="95.200000" departLane="random"/>
  <vehicle id="170" type="motorcycle" route="0" depart="96.000000" departLane="random"/>
  <vehicle id="171" type="car" route="0" depart="96.800000" departLane="random"/>
  <vehicle id="172" type="car" route="0" depart="97.600000" departLane="random"/>
  <vehicle id="173" type="car" route="0" depart="98.400000" departLane="random"/>
  <vehicle id="174" type="car" route="0" depart="99.200000" departLane="random"/>
  <vehicle id="175" type="car" route="0" depart="100.000000" departLane="random"/>
  <vehicle id="176" type="bus" route="0" depart="100.800000" departLane="random"/>
  <vehicle id="177" type="car" route="0" depart="101.600000" departLane="random"/>
  <vehicle id="178" type="car" route="0" depart="102.400000" departLane="random"/>
  <vehicle id="179" type="car" route="0" depart="103.200000" departLane="random"/>
  <vehicle id="180" type="trailer" route="0" depart="104.000000" departLane="random"/>
  <vehicle id="181" type="car" route="0" depart="104.800000" departLane="random"/>
  <vehicle id="182" type="car" route="0" depart="105.600000" departLane="random"/>
  <vehicle id="183" type="car" route="0" depart="106.400000" departLane="random"/>
  <vehicle id="184" type="car" route="0" depart="107.200000" departLane="random"/>
  <vehicle id="185" type="car" route="0" depart="108.000000" departLane="random"/>
  <vehicle id="186" type="car" route="0" depart="108.800000" departLane="random"/>
  <vehicle id="187" type="car" route="0" depart="109.600000" departLane="random"/>
  <vehicle id="188" type="car" route="0" depart="110.400000" departLane="random"/>
  <vehicle id="189" type="car" route="0" depart="111.200000" departLane="random"/>
  <vehicle id="190" type="motorcycle" route="0" depart="112.000000" departLane="random"/>
  <vehicle id="191" type="car" route="0" depart="112.800000" departLane="random"/>
  <vehicle id="192" type="bus" route="0" depart="113.600000" departLane="random"/>
  <vehicle id="193" type="car" route="0" depart="114.400000" departLane="random"/>
  <vehicle id="194" type="car" route="0" depart="115.200000" departLane="random"/>
  <vehicle id="195" type="trailer" route="0" depart="116.000000" departLane="random"/>
  <vehicle id="196" type="car" route="0" depart="116.800000" departLane="random"/>
  <vehicle id="197" type="car" route="0" depart="117.600000" departLane="random"/>
  <vehicle id="198" type="car" route="0" depart="118.400000" departLane="random"/>
  <vehicle id="199" type="car" route="0" depart="119.200000" departLane="random"/>
  <vehicle id="200" type="truck" route="0" depart="120.000000" departLane="random"/>
  <vehicle id="201" type="car" route="0" depart="120.800000" departLane="random"/>
  <vehicle id="202" type="car" route="0" depart="121.600000" departLane="random"/>
  <vehicle id="203" type="car" route="0" depart="122.400000" departLane="random"/>
  <vehicle id="204" type="car" route="0" depart="123.200000" departLane="random"/>
  <vehicle id="205" type="car" route="0" depart="124.000000" departLane="random"/>
  <vehicle id="206" type="car" route="0" depart="124.800000" departLane="random"/>
  <vehicle id="207" type="car" route="0" depart="125.600000" departLane="random"/>
  <vehicle id="208" type="bus" route="0" depart="126.400000" departLane="random"/>
  <vehicle id="209" type="car" route="0" depart="127.200000" departLane="random"/>
  <vehicle id="210" type="trailer" route="0" depart="128.000000" departLane="random"/>
  <vehicle id="211" type="car" route="0" depart="128.800000" departLane="random"/>
  <vehicle id="212" type="car" route="0" depart="129.600000" departLane="random"/>
  <vehicle id="213" type="car" route="0" depart="130.400000" departLane="random"/>
  <vehicle id="214" type="car" route="0" depart="131.200000" departLane="random"/>
  <vehicle id="215" type="car" route="0" depart="132.000000" departLane="random"/>
  <vehicle id="216" type="car" route="0" depart="132.800000" departLane="random"/>
  <vehicle id="217" type="car" route="0" depart="133.600000" departLane="random"/>
  <vehicle id="218" type="car" route="0" depart="134.400000" departLane="random"/>
  <vehicle id="219" type="car" route="0" depart="135.200000" departLane="random"/>
  <vehicle id="220" type="motorcycle" route="0" depart="136.000000" departLane="random"/>
  <vehicle id="221" type="car" route="0" depart="136.800000" departLane="random"/>
  <vehicle id="222" type="car" route="0" depart="137.600000" departLane="random"/>
  <vehicle id="223" type="car" route="0" depart="138.400000" departLane="random"/>
  <vehicle id="224" type="bus" route="0" depart="139.200000" departLane="random"/>
  <vehicle id="225" type="trailer" route="0" depart="140.000000" departLane="random"/>
  <vehicle id="226" type="car" route="0" depart="140.800000" departLane="random"/>
  <vehicle id="227" type="car" route="0" depart="141.600000" departLane="random"/>
  <vehicle id="228" type="car" route="0" depart="142.400000" departLane="random"/>
  <vehicle id="229" type="car" route="0" depart="143.200000" departLane="random"/>
  <vehicle id="230" type="motorcycle" route="0" depart="144.000000" departLane="random"/>
  <vehicle id="231" type="car" route="0" depart="144.800000" departLane="random"/>
  <vehicle id="232" type="car" route="0" depart="145.600000" departLane="random"/>
  <vehicle id="233" type="car" route="0" depart="146.400000" departLane="random"/>
  <vehicle id="234" type="car" route="0" depart="147.200000" departLane="random"/>
  <vehicle id="235" type="car" route="0" depart="148.000000" departLane="random"/>
  <vehicle id="236" type="car" route="0" depart="148.800000" departLane="random"/>
  <vehicle id="237" type="car" route="0" depart="149.600000" departLane="random"/>
  <vehicle id="238" type="car" route="0" depart="150.400000" departLane="random"/>
  <vehicle id="239" type="car" route="0" depart="151.200000" departLane="random"/>
  <vehicle id="240" type="truck" route="0" depart="152.000000" departLane="random"/>
  <vehicle id="241" type="car" route="0" depart="152.800000" departLane="random"/>
  <vehicle id="242" type="car" route="0" depart="153.600000" departLane="random"/>
  <vehicle id="243" type="car" route="0" depart="154.400000" departLane="random"/>
  <vehicle id="244" type="car" route="0" depart="155.200000" departLane="random"/>
  <vehicle id="245" type="car" route="0" depart="156.000000" departLane="random"/>
  <vehicle id="246" type="car" route="0" depart="156.800000" departLane="random"/>
  <vehicle id="247" type="car" route="0" depart="157.600000" departLane="random"/>
  <vehicle id="248" type="car" route="0" depart="158.400000" departLane="random"/>
  <vehicle id="249" type="car" route="0" depart="159.200000" departLane="random"/>
  <vehicle id="250" type="motorcycle" route="0" depart="160.000000" departLane="random"/>
  <vehicle id="251" type="car" route="0" depart="160.800000" departLane="random"/>
  <vehicle id="252" type="car" route="0" depart="161.600000" departLane="random"/>
  <vehicle id="253" type="car" route="0" depart="162.400000" departLane="random"/>
  <vehicle id="254" type="car" route="0" depart="163.200000" departLane="random"/>
  <vehicle id="255" type="trailer" route="0" depart="164.000000" departLane="random"/>
  <vehicle id="256" type="bus" route="0" depart="164.800000" departLane="random"/>
  <vehicle id="257" type="car" route="0" depart="165.600000" departLane="random"/>
  <vehicle id="258" type="car" route="0" depart="166.400000" departLane="random"/>
  <vehicle id="259" type="car" route="0" depart="167.200000" departLane="random"/>
  <vehicle id="260" type="motorcycle" route="0" depart="168.000000" departLane="random"/>
  <vehicle id="261" type="car" route="0" depart="168.800000" departLane="random"/>
  <vehicle id="262" type="car" route="0" depart="169.600000" departLane="random"/>
  <vehicle id="263" type="car" route="0" depart="170.400000" departLane="random"/>
  <vehicle id="264" type="car" route="0" depart="171.200000" departLane="random"/>
  <vehicle id="265" type="car" route="0" depart="172.000000" departLane="random"/>
  <vehicle id="266" type="car" route="0" depart="172.800000" departLane="random"/>
  <vehicle id="267" type="car" route="0" depart="173.600000" departLane="random"/>
  <vehicle id="268" type="car" route="0" depart="174.400000" departLane="random"/>
  <vehicle id="269" type="car" route="0" depart="175.200000" departLane="random"/>
  <vehicle id="270" type="trailer" route="0" depart="176.000000" departLane="random"/>
  <vehicle id="271" type="car" route="0" depart="176.800000" departLane="random"/>
  <vehicle id="272" type="bus" route="0" depart="177.600000" departLane="random"/>
  <vehicle id="273" type="car" route="0" depart="178.400000" departLane="random"/>
  <vehicle id="274" type="car" route="0" depart="179.200000" departLane="random"/>
  <vehicle id="275" type="car" route="0" depart="180.000000" departLane="random"/>
  <vehicle id="276" type="car" route="0" depart="180.800000" departLane="random"/>
  <vehicle id="277" type="car" route="0" depart="181.600000" departLane="random"/>
  <vehicle id="278" type="car" route="0" depart="182.400000" departLane="random"/>
  <vehicle id="279" type="car" route="0" depart="183.200000" departLane="random"/>
  <vehicle id="280" type="truck" route="0" depart="184.000000" departLane="random"/>
  <vehicle id="281" type="car" route="0" depart="184.800000" departLane="random"/>
  <vehicle id="282" type="car" route="0" depart="185.600000" departLane="random"/>
  <vehicle id="283" type="car" route="0" depart="186.400000" departLane="random"/>
  <vehicle id="284" type="car" route="0" depart="187.200000" departLane="random"/>
  <vehicle id="285" type="trailer" route="0" depart="188.000000" departLane="random"/>
  <vehicle id="286" type="car" route="0" depart="188.800000" departLane="random"/>
  <vehicle id="287" type="car" route="0" depart="189.600000" departLane="random"/>
  <vehicle id="288" type="bus" route="0" depart="190.400000" departLane="random"/>
  <vehicle id="289" type="car" route="0" depart="191.200000" departLane="random"/>
  <vehicle id="290" type="motorcycle" route="0" depart="192.000000" departLane="random"/>
  <vehicle id="291" type="car" route="0" depart="192.800000" departLane="random"/>
  <vehicle id="292" type="car" route="0" depart="193.600000" departLane="random"/>
  <vehicle id="293" type="car" route="0" depart="194.400000" departLane="random"/>
  <vehicle id="294" type="car" route="0" depart="195.200000" departLane="random"/>
  <vehicle id="295" type="car" route="0" depart="196.000000" departLane="random"/>
  <vehicle id="296" type="car" route="0" depart="196.800000" departLane="random"/>
  <vehicle id="297" type="car" route="0" depart="197.600000" departLane="random"/>
  <vehicle id="298" type="car" route="0" depart="198.400000" departLane="random"/>
  <vehicle id="299" type="car" route="0" depart="199.200000" departLane="random"/>
  <vehicle id="300" type="trailer" route="0" depart="200.000000" departLane="random"/>
  <vehicle id="301" type="car" route="0" depart="200.800000" departLane="random"/>
  <vehicle id="302" type="car" route="0" depart="201.600000" departLane="random"/>
  <vehicle id="303" type="car" route="0" depart="202.400000" departLane="random"/>
  <vehicle id="304" type="bus" route="0" depart="203.200000" departLane="random"/>
  <vehicle id="305" type="car" route="0" depart="204.000000" departLane="random"/>
  <vehicle id="306" type="car" route="0" depart="204.800000" departLane="random"/>
  <vehicle id="307" type="car" route="0" depart="205.600000" departLane="random"/>
  <vehicle id="308" type="car" route="0" depart="206.400000" departLane="random"/>
  <vehicle id="309" type="car" route="0" depart="207.200000" departLane="random"/>
  <vehicle id="310" type="motorcycle" route="0" depart="208.000000" departLane="random"/>
  <vehicle id="311" type="car" route="0" depart="208.800000" departLane="random"/>
  <vehicle id="312" type="car" route="0" depart="209.600000" departLane="random"/>
  <vehicle id="313" type="car" route="0" depart="210.400000" departLane="random"/>
  <vehicle id="314" type="car" route="0" depart="211.200000" departLane="random"/>
  <vehicle id="315" type="trailer" route="0" depart="212.000000" departLane="random"/>
  <vehicle id="316" type="car" route="0" depart="212.800000" departLane="random"/>
  <vehicle id="317" type="car" route="0" depart="213.600000" departLane="random"/>
  <vehicle id="318" type="car" route="0" depart="214.400000" departLane="random"/>
  <vehicle id="319" type="car" route="0" depart="215.200000" departLane="random"/>
  <vehicle id="320" type="truck" route="0" depart="216.000000" departLane="random"/>
  <vehicle id="321" type="car" route="0" depart="216.800000" departLane="random"/>
  <vehicle id="322" type="car" route="0" depart="217.600000" departLane="random"/>
  <vehicle id="323" type="car" route="0" depart="218.400000" departLane="random"/>
  <vehicle id="324" type="car" route="0" depart="219.200000" departLane="random"/>
  <vehicle id="325" type="car" route="0" depart="220.000000" departLane="random"/>
  <vehicle id="326" type="car" route="0" depart="220.800000" departLane="random"/>
  <vehicle id="327" type="car" route="0" depart="221.600000" departLane="random"/>
  <vehicle id="328" type="car" route="0" depart="222.400000" departLane="random"/>
  <vehicle id="329" type="car" route="0" depart="223.200000" departLane="random"/>
  <vehicle id="330" type="trailer" route="0" depart="224.000000" departLane="random"/>
  <vehicle id="331" type="car" route="0" depart="224.800000" departLane="random"/>
  <vehicle id="332" type="car" route="0" depart="225.600000" departLane="random"/>
  <vehicle id="333" type="car" route="0" depart="226.400000" departLane="random"/>
  <vehicle id="334" type="car" route="0" depart="227.200000" departLane="random"/>