<?xml version='1.0' encoding='UTF-8'?>
<edges>
  <edge id="0" from="Custom0" to="Custom1" numLanes="4" width="3.75" shape="-7.500000,0.000000 -7.500000,878.333236 -7.500814,909.802599 -7.506510,937.513111 -7.521969,961.730103 -7.552069,982.718677 -7.601675,1000.743473 -7.675636,1016.068437 -7.778751,1028.956481 -7.915712,1039.669019 -8.090985,1048.465400 -8.308564,1055.602543 -8.571562,1061.335660 -8.881836,1065.922168 -9.240640,1069.631468 -9.652229,1072.758267 -10.129368,1075.623746 -10.690948,1078.544976 -11.342462,1081.749892 -12.053185,1085.242891 -12.064169,1085.297927 -12.799439,1089.055251 -12.818368,1089.155602 -13.551197,1093.191246 -13.574735,1093.328059 -14.278267,1097.656672 -14.303342,1097.822664 -14.950721,1102.458895 -14.974673,1102.647926 -15.539045,1107.606423 -15.559684,1107.813218 -16.014193,1113.108628 -16.029819,1113.328596 -16.347608,1118.975569 -16.356991,1119.204689 -16.511207,1125.217873 -16.513552,1125.452634 -16.477337,1131.846677 -16.472236,1132.084029 -16.218736,1138.873580 -16.206107,1139.110912 -15.708467,1146.310619 -15.688496,1146.545728 -14.919859,1154.170240 -14.892939,1154.401308 -13.826452,1162.465272 -13.793124,1162.690838 -12.401929,1171.208904 -12.364486,1171.419278 -10.634749,1180.394701 -10.600925,1180.560165 -8.570896,1189.950627 -8.543441,1190.072689 -6.264388,1199.824480 -6.243685,1199.910759 -3.766878,1209.970166 -3.752927,1210.025910 -1.129636,1220.339223 -1.122270,1220.367941 1.596235,1230.881450 4.357116,1241.535388 7.104136,1252.256516 9.786787,1262.992787 12.354103,1273.689330 14.755221,1284.290338 16.939477,1294.738946 18.856568,1304.977040 20.456810,1314.944985 21.691550,1324.581268 22.514399,1333.828187 22.896995,1342.664696 22.868461,1351.121175 22.469678,1359.219864 21.740593,1366.977382 20.720508,1374.410208 19.448174,1381.534577 17.961898,1388.366431 16.299674,1394.921430 14.499305,1401.215035 12.598511,1407.262656 10.635028,1413.079867 8.646698,1418.682686 6.671575,1424.087924 4.755278,1429.294063 4.741001,1429.333183 2.933954,1434.327893 2.897409,1434.431259 1.244170,1439.218450 1.189301,1439.383510 -0.277577,1443.973394 -0.332685,1444.153605 -1.616458,1448.548421 -1.667132,1448.730380 -2.780006,1452.930371 -2.826028,1453.113320 -3.780211,1457.118732 -3.821409,1457.301800 -4.629107,1461.112876 -4.665368,1461.295064 -5.338789,1464.912048 -5.370064,1465.092206 -5.921415,1468.515343 -5.947734,1468.692141 -6.389221,1471.921673 -6.410699,1472.093557 -6.754531,1475.129731 -6.771382,1475.294858 -7.029764,1478.137916 -7.042312,1478.294062 -7.227452,1480.944249 -7.236142,1481.088657 -7.360247,1483.546217 -7.365654,1483.675376 -7.440930,1485.940553 -7.443765,1486.049830 -7.482420,1488.122868 -7.483509,1488.205917 -7.497751,1490.087061 -7.497960,1490.134808 -7.499995,1491.824302 -7.500000,1491.833333 -7.500000,1493.333374 -7.500000,1509.829474 -7.501643,1511.426277 -7.512951,1513.163179 -7.543263,1515.033169 -7.601796,1517.030258 -7.697696,1519.146549 -7.840052,1521.372995 -8.037878,1523.699837 -8.300104,1526.116866 -8.635559,1528.613604 -9.052959,1531.179429 -9.560905,1533.803672 -10.167879,1536.475709 -10.882258,1539.185029 -11.712335,1541.921317 -12.666354,1544.674516 -13.756318,1547.444428 -15.003920,1550.270307 -16.403246,1553.200229 -17.922001,1556.246959 -19.508944,1559.393314 -19.531953,1559.439325 -21.126843,1562.656122 -21.185704,1562.777575 -22.740554,1566.060778 -22.830271,1566.257506 -24.305043,1569.618834 -24.418448,1569.891806 -25.773103,1573.342978 -25.900612,1573.693167 -27.095111,1577.245901 -27.224653,1577.672832 -28.218957,1581.338848 -28.336362,1581.838926 -29.090431,1585.629942 -29.180559,1586.194899 -29.654355,1590.122633 -29.703022,1590.738630 -29.856505,1594.814802 -29.852890,1595.462810 -29.646022,1599.699138 -29.584782,1600.356842 -28.977523,1604.765045 -28.859772,1605.409900 -27.812083,1610.001697 -27.654625,1610.583076 -26.148033,1615.374335 -26.009424,1615.775164 -24.111719,1620.798357 -24.021301,1621.026343 -21.821839,1626.318091 -21.783940,1626.407630 -19.377192,1631.992680 -16.872739,1637.860042 -14.369362,1644.016763 -11.945328,1650.510763 -9.678404,1657.388197 -7.646458,1664.694974 -5.928107,1672.477739 -4.603457,1680.784296 -3.754809,1689.663474 -3.467165,1699.164534 -3.828389,1709.336310 -4.928964,1720.226326 -6.862238,1731.884939 -9.701171,1744.335951 -13.415539,1757.440799 -17.940897,1771.000645 -23.209245,1784.816998 -29.151208,1798.695035 -35.696208,1812.442000 -42.772265,1825.866123 -50.305462,1838.775843 -58.218997,1850.979225 -66.431639,1862.283580 -74.855237,1872.495510 -83.390843,1881.422062 -91.923204,1888.874713 -100.315149,1894.680094 -108.410133,1898.703699 -116.088219,1900.892293 -123.451023,1901.308465 -130.802060,1900.069551 -138.335915,1897.177893 -146.091341,1892.614472 -154.024434,1886.415428 -162.072925,1878.673287 -170.185520,1869.513133 -178.327320,1859.073916 -186.476988,1847.498802 -194.622757,1834.931120 -202.759277,1821.512961 -210.885446,1807.384857 -219.003020,1792.685859 -227.115718,1777.553720 -235.228678,1762.125065 -243.348126,1746.535527 "/>
</edges>
