<?xml version="1.0" encoding="UTF-8"?>

<!-- generated on 23.11.2018 10:22:53 by Netedit Version 0.30.0
<?xml version="1.0" encoding="UTF-8"?>

<configuration xmlns:xsi="http://www.w3.org/2001/XMLSchema-instance" xsi:noNamespaceSchemaLocation="http://sumo.dlr.de/xsd/netconvertConfiguration.xsd">

    <input>
        <sumo-net-file value="C:\msys64\home\David\develop\webots-develop\webots\projects\samples\robotbenchmark\highway_driving\worlds\highway_driving_net\sumo.net.xml"/>
    </input>

    <output>
        <output-file value="C:\msys64\home\David\develop\webots-develop\webots\projects\samples\robotbenchmark\highway_driving\worlds\highway_driving_net\sumo.net.xml"/>
    </output>

    <processing>
        <no-internal-links value="true"/>
        <no-turnarounds value="true"/>
        <offset.disable-normalization value="true"/>
        <lefthand value="false"/>
        <junctions.corner-detail value="0"/>
        <rectangular-lane-cut value="false"/>
    </processing>

    <visualisation>
        <registry-viewport value="true"/>
    </visualisation>

</configuration>
-->

<net version="0.27" xmlns:xsi="http://www.w3.org/2001/XMLSchema-instance" xsi:noNamespaceSchemaLocation="http://sumo.dlr.de/xsd/net_file.xsd">

    <location netOffset="250.00,0.00" convBoundary="0.00,0.00,272.90,1901.31" origBoundary="-250.00,0.00,22.90,1901.31" projParameter="!"/>

    <edge id="0" from="Custom0" to="Custom1" priority="-1" shape="242.50,0.00 242.50,878.33 242.50,909.80 242.49,937.51 242.48,961.73 242.45,982.72 242.40,1000.74 242.32,1016.07 242.22,1028.96 242.08,1039.67 241.91,1048.47 241.69,1055.60 241.43,1061.34 241.12,1065.92 240.76,1069.63 240.35,1072.76 239.87,1075.62 239.31,1078.54 238.66,1081.75 237.95,1085.24 237.20,1089.06 237.18,1089.16 236.45,1093.19 236.43,1093.33 235.72,1097.66 235.70,1097.82 235.05,1102.46 235.03,1102.65 234.46,1107.61 234.44,1107.81 233.99,1113.11 233.97,1113.33 233.65,1118.98 233.64,1119.20 233.49,1125.22 233.49,1125.45 233.52,1131.85 233.53,1132.08 233.78,1138.87 233.79,1139.11 234.29,1146.31 234.31,1146.55 235.08,1154.17 235.11,1154.40 236.17,1162.47 236.21,1162.69 237.60,1171.21 237.64,1171.42 239.37,1180.39 239.40,1180.56 241.43,1189.95 241.46,1190.07 243.74,1199.82 246.23,1209.97 248.87,1220.34 251.60,1230.88 254.36,1241.54 257.10,1252.26 259.79,1262.99 262.35,1273.69 264.76,1284.29 266.94,1294.74 268.86,1304.98 270.46,1314.94 271.69,1324.58 272.51,1333.83 272.90,1342.66 272.87,1351.12 272.47,1359.22 271.74,1366.98 270.72,1374.41 269.45,1381.53 267.96,1388.37 266.30,1394.92 264.50,1401.22 262.60,1407.26 260.64,1413.08 258.65,1418.68 256.67,1424.09 254.76,1429.29 252.93,1434.33 252.90,1434.43 251.24,1439.22 251.19,1439.38 249.72,1443.97 249.67,1444.15 248.38,1448.55 248.33,1448.73 247.22,1452.93 247.17,1453.11 246.22,1457.12 246.18,1457.30 245.37,1461.11 245.33,1461.30 244.66,1464.91 244.63,1465.09 244.08,1468.52 244.05,1468.69 243.61,1471.92 243.59,1472.09 243.25,1475.13 243.23,1475.29 242.97,1478.14 242.96,1478.29 242.77,1480.94 242.76,1481.09 242.64,1483.55 242.63,1483.68 242.56,1485.94 242.56,1486.05 242.52,1488.12 242.50,1490.09 242.50,1491.82 242.50,1493.33 242.50,1509.83 242.50,1511.43 242.49,1513.16 242.46,1515.03 242.40,1517.03 242.30,1519.15 242.16,1521.37 241.96,1523.70 241.70,1526.12 241.36,1528.61 240.95,1531.18 240.44,1533.80 239.83,1536.48 239.12,1539.19 238.29,1541.92 237.33,1544.67 236.24,1547.44 235.00,1550.27 233.60,1553.20 232.08,1556.25 230.49,1559.39 228.87,1562.66 228.81,1562.78 227.26,1566.06 227.17,1566.26 225.69,1569.62 225.58,1569.89 224.23,1573.34 224.10,1573.69 222.90,1577.25 222.78,1577.67 221.78,1581.34 221.66,1581.84 220.91,1585.63 220.82,1586.19 220.35,1590.12 220.30,1590.74 220.14,1594.81 220.15,1595.46 220.35,1599.70 220.42,1600.36 221.02,1604.77 221.14,1605.41 222.19,1610.00 222.35,1610.58 223.85,1615.37 223.99,1615.78 225.89,1620.80 225.98,1621.03 228.18,1626.32 230.62,1631.99 233.13,1637.86 235.63,1644.02 238.05,1650.51 240.32,1657.39 242.35,1664.69 244.07,1672.48 245.40,1680.78 246.25,1689.66 246.53,1699.16 246.17,1709.34 245.07,1720.23 243.14,1731.88 240.30,1744.34 236.58,1757.44 232.06,1771.00 226.79,1784.82 220.85,1798.70 214.30,1812.44 207.23,1825.87 199.69,1838.78 191.78,1850.98 183.57,1862.28 175.14,1872.50 166.61,1881.42 158.08,1888.87 149.68,1894.68 141.59,1898.70 133.91,1900.89 126.55,1901.31 119.20,1900.07 111.66,1897.18 103.91,1892.61 95.98,1886.42 87.93,1878.67 79.81,1869.51 71.67,1859.07 63.52,1847.50 55.38,1834.93 47.24,1821.51 39.11,1807.38 31.00,1792.69 22.88,1777.55 14.77,1762.13 6.65,1746.54">
        <lane id="0_0" index="0" allow="pedestrian" speed="13.90" length="2181.33" width="3.75" shape="255.97,0.00 255.97,878.33 255.97,909.80 255.96,937.52 255.95,961.74 255.92,982.75 255.87,1000.79 255.79,1016.16 255.69,1029.10 255.55,1039.88 255.38,1048.80 255.16,1056.10 254.88,1062.10 254.55,1067.03 254.15,1071.16 253.68,1074.75 253.13,1078.01 252.53,1081.15 251.87,1084.43 251.16,1087.88 250.42,1091.66 249.71,1095.58 249.02,1099.82 249.05,1099.68 248.40,1104.31 248.42,1104.18 247.85,1109.14 247.87,1108.96 247.42,1114.25 247.10,1119.74 246.96,1125.54 246.96,1125.39 246.99,1131.77 247.00,1131.58 247.25,1138.37 247.73,1145.37 248.49,1152.80 248.47,1152.65 249.53,1160.70 249.49,1160.40 250.90,1169.03 250.87,1168.87 252.60,1177.84 252.63,1177.96 254.60,1187.10 254.56,1186.90 256.84,1196.68 259.30,1206.70 261.92,1216.99 264.64,1227.50 267.41,1238.18 270.16,1248.95 272.88,1259.78 275.47,1270.63 277.93,1281.42 280.16,1292.12 282.14,1302.67 283.80,1313.02 285.09,1323.13 285.96,1332.94 286.38,1342.39 286.34,1351.48 285.91,1360.18 285.13,1368.53 284.03,1376.51 282.67,1384.15 281.08,1391.46 279.31,1398.43 277.41,1405.09 275.41,1411.43 273.37,1417.48 271.33,1423.25 269.32,1428.73 267.42,1433.91 265.60,1438.92 265.73,1438.57 263.98,1443.62 264.02,1443.49 262.56,1448.06 262.60,1447.93 261.31,1452.33 261.36,1452.18 260.25,1456.38 259.33,1460.22 259.36,1460.11 258.55,1463.91 258.58,1463.77 257.91,1467.36 257.93,1467.23 257.38,1470.66 257.37,1470.77 256.96,1473.73 256.98,1473.59 256.64,1476.64 256.39,1479.35 256.21,1481.90 256.22,1481.76 256.10,1484.23 256.09,1484.41 256.03,1486.34 255.99,1488.32 255.97,1490.16 255.97,1491.82 255.97,1493.33 255.97,1509.83 255.97,1511.47 255.96,1513.31 255.93,1515.34 255.86,1517.55 255.75,1519.89 255.60,1522.37 255.37,1525.00 255.08,1527.75 254.69,1530.59 254.22,1533.53 253.62,1536.59 252.92,1539.69 252.09,1542.86 251.10,1546.10 249.97,1549.36 248.69,1552.61 247.25,1555.88 245.71,1559.11 244.12,1562.30 242.54,1565.42 240.94,1568.64 240.99,1568.55 239.45,1571.80 239.50,1571.70 238.03,1575.03 238.12,1574.81 236.79,1578.23 235.69,1581.49 235.78,1581.23 234.79,1584.84 234.83,1584.72 234.14,1588.18 234.17,1588.06 233.74,1591.65 233.75,1591.55 233.61,1595.24 233.62,1595.04 233.80,1598.96 233.80,1598.74 234.36,1602.87 234.34,1602.66 235.31,1606.93 235.28,1606.77 236.70,1611.32 236.67,1611.22 238.49,1616.02 240.59,1621.07 243.00,1626.68 245.57,1632.68 248.19,1639.13 250.77,1646.04 253.22,1653.47 255.43,1661.43 257.31,1669.96 258.77,1679.07 259.71,1688.82 260.01,1699.20 259.62,1710.26 258.43,1722.01 256.37,1734.48 253.36,1747.68 249.46,1761.41 244.75,1775.53 239.28,1789.87 233.13,1804.25 226.35,1818.48 219.02,1832.41 211.17,1845.85 202.89,1858.61 194.23,1870.54 185.22,1881.46 175.93,1891.17 166.37,1899.52 156.55,1906.31 146.48,1911.32 136.17,1914.26 125.80,1914.85 115.63,1913.13 105.79,1909.36 96.31,1903.77 87.14,1896.61 78.20,1888.01 69.44,1878.13 60.84,1867.10 52.35,1855.05 43.96,1842.09 35.64,1828.37 27.37,1814.00 19.16,1799.13 10.98,1783.87 2.83,1768.38 -5.30,1752.76"/>
        <lane id="0_1" index="1" disallow="pedestrian" speed="13.90" length="2181.33" width="3.75" shape="252.13,0.00 252.13,878.33 252.12,909.80 252.11,937.51 252.10,961.74 252.07,982.74 252.02,1000.78 251.94,1016.13 251.84,1029.06 251.70,1039.82 251.53,1048.71 251.31,1055.96 251.04,1061.88 250.71,1066.71 250.32,1070.72 249.87,1074.18 249.34,1077.32 248.75,1080.40 248.09,1083.66 247.39,1087.13 246.64,1090.92 245.92,1094.89 245.22,1099.20 244.58,1103.78 244.02,1108.70 243.58,1113.93 243.57,1114.04 243.26,1119.52 243.11,1125.45 243.14,1131.79 243.40,1138.51 243.89,1145.64 244.66,1153.19 245.71,1161.20 245.70,1161.05 247.10,1169.65 248.82,1178.57 248.85,1178.71 250.84,1187.91 250.82,1187.81 253.10,1197.58 255.57,1207.64 258.19,1217.95 260.92,1228.47 263.68,1239.14 266.43,1249.90 269.14,1260.70 271.72,1271.50 274.16,1282.24 276.38,1292.87 278.34,1303.33 279.99,1313.57 281.26,1323.55 282.12,1333.19 282.53,1342.46 282.49,1351.37 282.07,1359.91 281.30,1368.09 280.23,1375.91 278.89,1383.40 277.33,1390.58 275.59,1397.42 273.72,1403.99 271.75,1410.24 269.74,1416.23 267.70,1421.94 265.71,1427.40 263.80,1432.59 261.98,1437.61 262.06,1437.39 260.34,1442.36 258.89,1446.89 257.62,1451.25 256.52,1455.39 256.49,1455.51 255.59,1459.33 254.78,1463.11 254.12,1466.66 253.58,1470.05 253.56,1470.18 253.15,1473.21 252.81,1476.21 252.56,1479.00 252.37,1481.63 252.25,1484.03 252.24,1484.20 252.18,1486.22 252.14,1488.26 252.12,1490.14 252.13,1491.82 252.13,1493.33 252.13,1509.83 252.12,1511.46 252.11,1513.27 252.08,1515.25 252.02,1517.40 251.91,1519.68 251.76,1522.09 251.54,1524.63 251.25,1527.29 250.88,1530.02 250.43,1532.86 249.86,1535.79 249.18,1538.77 248.38,1541.81 247.44,1544.91 246.36,1548.02 245.13,1551.13 243.75,1554.28 242.25,1557.42 240.68,1560.57 239.10,1563.70 237.49,1566.93 235.97,1570.16 234.51,1573.48 233.20,1576.83 232.04,1580.28 231.08,1583.84 230.36,1587.45 229.91,1591.21 229.91,1591.32 229.76,1595.12 229.96,1599.17 230.55,1603.41 231.56,1607.81 233.03,1612.47 234.89,1617.39 237.04,1622.57 239.47,1628.20 242.01,1634.16 244.60,1640.53 247.13,1647.32 249.53,1654.59 251.69,1662.36 253.53,1670.68 254.95,1679.56 255.86,1689.06 256.16,1699.19 255.78,1709.99 254.62,1721.50 252.59,1733.74 249.63,1746.73 245.78,1760.28 241.13,1774.24 235.71,1788.43 229.62,1802.67 222.91,1816.75 215.65,1830.54 207.89,1843.83 199.72,1856.43 191.18,1868.18 182.34,1878.90 173.27,1888.38 164.00,1896.48 154.58,1902.99 145.08,1907.71 135.52,1910.44 126.02,1910.98 116.65,1909.40 107.46,1905.88 98.48,1900.58 89.66,1893.70 80.98,1885.34 72.41,1875.67 63.94,1864.80 55.54,1852.89 47.22,1840.04 38.95,1826.41 30.72,1812.11 22.55,1797.29 14.38,1782.06 6.24,1766.59 -1.89,1750.98"/>
        <lane id="0_2" index="2" disallow="pedestrian" speed="13.90" length="2181.33" width="3.75" shape="248.28,0.00 248.28,878.33 248.27,909.80 248.26,937.51 248.25,961.74 248.22,982.73 248.17,1000.76 248.09,1016.11 247.99,1029.02 247.85,1039.76 247.68,1048.61 247.46,1055.82 247.20,1061.67 246.88,1066.39 246.50,1070.28 246.06,1073.61 245.55,1076.64 244.98,1079.66 244.32,1082.90 243.61,1086.37 242.87,1090.17 242.13,1094.21 241.42,1098.59 240.77,1103.25 240.20,1108.27 239.74,1113.60 239.73,1113.75 239.42,1119.30 239.26,1125.36 239.29,1131.82 239.55,1138.66 239.56,1138.79 240.05,1145.91 240.06,1146.02 240.83,1153.58 241.89,1161.71 243.30,1170.28 245.04,1179.30 245.07,1179.45 247.07,1188.73 249.36,1198.47 251.83,1208.57 254.46,1218.90 257.19,1229.43 259.95,1240.10 262.70,1250.84 265.40,1261.62 267.97,1272.38 270.40,1283.06 272.61,1293.62 274.55,1303.99 276.18,1314.12 277.43,1323.96 278.27,1333.45 278.68,1342.54 278.64,1351.27 278.23,1359.63 277.48,1367.64 276.43,1375.31 275.12,1382.65 273.58,1389.69 271.88,1396.42 270.03,1402.88 268.09,1409.05 266.10,1414.97 264.08,1420.64 262.09,1426.08 260.18,1431.27 258.36,1436.30 256.70,1441.11 255.22,1445.72 253.92,1450.17 252.80,1454.41 252.76,1454.55 251.84,1458.45 251.02,1462.31 250.34,1465.96 249.78,1469.44 249.76,1469.58 249.33,1472.69 248.99,1475.78 248.72,1478.66 248.53,1481.35 248.41,1483.84 248.40,1483.99 248.33,1486.11 248.29,1488.21 248.27,1490.12 248.28,1491.82 248.28,1493.33 248.28,1509.83 248.27,1511.45 248.26,1513.22 248.23,1515.16 248.17,1517.25 248.07,1519.47 247.92,1521.80 247.71,1524.26 247.43,1526.82 247.07,1529.46 246.64,1532.19 246.09,1534.99 245.44,1537.85 244.68,1540.76 243.78,1543.71 242.75,1546.68 241.57,1549.66 240.25,1552.67 238.79,1555.73 237.24,1558.84 235.65,1561.98 234.04,1565.22 232.48,1568.52 230.98,1571.94 229.61,1575.44 229.54,1575.62 228.38,1579.07 228.35,1579.20 227.36,1582.84 227.30,1583.07 226.58,1586.72 226.54,1586.99 226.09,1590.78 226.07,1591.09 225.91,1594.99 225.92,1595.28 226.12,1599.38 226.15,1599.67 226.74,1603.95 226.80,1604.23 227.81,1608.68 227.89,1608.95 229.36,1613.63 229.42,1613.82 231.29,1618.75 231.34,1618.87 233.50,1624.07 235.93,1629.71 238.46,1635.64 241.01,1641.92 243.50,1648.60 245.85,1655.71 247.96,1663.29 249.75,1671.40 251.13,1680.05 252.02,1689.30 252.31,1699.18 251.93,1709.73 250.80,1720.99 248.81,1732.99 245.90,1745.77 242.10,1759.14 237.50,1772.94 232.14,1786.99 226.11,1801.08 219.46,1815.03 212.28,1828.67 204.61,1841.81 196.54,1854.25 188.14,1865.82 179.46,1876.34 170.60,1885.60 161.63,1893.43 152.62,1899.67 143.68,1904.11 134.88,1906.62 126.23,1907.11 117.67,1905.67 109.14,1902.40 100.65,1897.39 92.19,1890.79 83.76,1882.67 75.37,1873.20 67.03,1862.51 58.73,1850.73 50.49,1838.00 42.27,1824.45 34.08,1810.22 25.93,1795.45 17.78,1780.26 9.65,1764.81 1.53,1749.20"/>
        <lane id="0_3" index="3" disallow="pedestrian" speed="13.90" length="2181.33" width="3.75" shape="244.43,0.00 244.43,878.33 244.42,909.80 244.41,937.51 244.40,961.73 244.37,982.72 244.32,1000.75 244.24,1016.08 244.14,1028.98 244.00,1039.70 243.83,1048.52 243.61,1055.67 243.35,1061.45 243.04,1066.08 242.67,1069.85 242.25,1073.04 241.76,1075.96 241.20,1078.91 240.55,1082.13 239.84,1085.62 239.09,1089.43 238.34,1093.53 238.33,1093.64 237.62,1097.97 237.61,1098.09 236.96,1102.72 236.94,1102.87 236.37,1107.83 236.36,1107.97 235.91,1113.27 235.89,1113.47 235.57,1119.09 235.56,1119.27 235.41,1125.27 235.41,1125.44 235.44,1131.84 235.45,1132.01 235.70,1138.80 235.71,1139.00 236.21,1146.18 236.23,1146.37 237.00,1153.97 237.02,1154.15 238.08,1162.22 238.11,1162.36 239.50,1170.90 239.53,1171.06 241.26,1180.03 241.29,1180.19 243.31,1189.54 245.61,1199.37 248.10,1209.50 250.73,1219.86 253.46,1230.40 256.22,1241.06 258.97,1251.79 261.66,1262.53 264.22,1273.25 266.64,1283.88 268.83,1294.37 270.76,1304.65 272.37,1314.67 273.60,1324.37 274.43,1333.70 274.83,1342.62 274.79,1351.17 274.39,1359.36 273.65,1367.20 272.62,1374.71 271.34,1381.90 269.83,1388.81 268.16,1395.42 266.34,1401.77 264.43,1407.86 262.46,1413.71 260.46,1419.33 258.48,1424.75 256.57,1429.95 254.74,1434.99 253.06,1439.85 253.02,1439.97 251.55,1444.55 251.52,1444.69 250.23,1449.09 250.19,1449.22 249.08,1453.42 249.03,1453.59 248.09,1457.56 248.06,1457.70 247.25,1461.51 247.22,1461.65 246.55,1465.26 246.53,1465.40 245.98,1468.83 245.95,1468.99 245.52,1472.18 245.50,1472.30 245.16,1475.35 245.15,1475.47 244.89,1478.31 244.88,1478.43 244.69,1481.08 244.68,1481.19 244.56,1483.65 244.55,1483.78 244.48,1486.00 244.44,1488.15 244.42,1490.10 244.43,1491.82 244.43,1493.33 244.43,1509.83 244.42,1511.44 244.41,1513.18 244.38,1515.07 244.32,1517.10 244.22,1519.26 244.08,1521.51 243.88,1523.89 243.61,1526.35 243.26,1528.89 242.85,1531.52 242.32,1534.20 241.70,1536.94 240.97,1539.71 240.12,1542.52 239.14,1545.34 238.02,1548.18 236.75,1551.07 235.33,1554.04 233.80,1557.11 232.21,1560.25 230.59,1563.51 229.00,1566.88 228.93,1567.04 227.45,1570.39 227.37,1570.59 226.02,1574.04 225.91,1574.33 224.73,1577.86 224.64,1578.18 223.64,1581.84 223.54,1582.25 222.80,1585.99 222.73,1586.46 222.26,1590.34 222.22,1590.86 222.06,1594.87 222.07,1595.40 222.27,1599.59 222.33,1600.13 222.93,1604.50 223.03,1605.02 224.06,1609.56 224.20,1610.04 225.69,1614.79 225.80,1615.13 227.69,1620.12 227.77,1620.31 229.95,1625.57 232.39,1631.23 234.91,1637.12 237.42,1643.32 239.87,1649.87 242.16,1656.83 244.22,1664.22 245.96,1672.12 247.31,1680.54 248.17,1689.54 248.46,1699.17 248.09,1709.47 246.98,1720.48 245.03,1732.25 242.17,1744.82 238.42,1758.01 233.87,1771.65 228.57,1785.54 222.60,1799.49 216.02,1813.30 208.91,1826.80 201.33,1839.79 193.37,1852.07 185.09,1863.46 176.58,1873.78 167.94,1882.81 159.26,1890.39 150.66,1896.34 142.29,1900.50 134.23,1902.80 126.44,1903.24 118.69,1901.94 110.82,1898.92 102.82,1894.20 94.72,1887.88 86.54,1880.00 78.33,1870.74 70.12,1860.22 61.92,1848.58 53.75,1835.95 45.58,1822.49 37.43,1808.33 29.31,1793.61 21.18,1778.45 13.06,1763.02 4.94,1747.43"/>
    </edge>

    <junction id="Custom0" type="dead_end" x="250.00" y="0.00" incLanes="" intLanes="" shape="242.55,0.00 257.85,0.00"/>
    <junction id="Custom1" type="dead_end" x="0.00" y="1750.00" incLanes="0_0 0_1 0_2 0_3" intLanes="" shape="-6.97,1753.63 6.60,1746.56"/>

</net>
