<?xml version="1.0" encoding="UTF-8"?>

<!-- generated on Fri Nov  5 10:54:56 2021 by SUMO netconvert Version 0.30.0
<?xml version="1.0" encoding="UTF-8"?>

<configuration xmlns:xsi="http://www.w3.org/2001/XMLSchema-instance" xsi:noNamespaceSchemaLocation="http://sumo.dlr.de/xsd/netconvertConfiguration.xsd">


</configuration>
-->

<net version="0.27" xmlns:xsi="http://www.w3.org/2001/XMLSchema-instance" xsi:noNamespaceSchemaLocation="http://sumo.dlr.de/xsd/net_file.xsd">

    <location netOffset="5000.01,8.75" convBoundary="0.00,0.00,5000.01,25.46" origBoundary="-5000.01,-8.75,0.00,16.71" projParameter="!"/>

    <edge id="0" from="Custom0" to="Custom1" priority="-1" shape="4999.99,10.00 0.00,17.96">
        <lane id="0_0" index="0" allow="pedestrian" speed="13.90" length="5000.00" width="3.75" shape="5000.02,23.47 0.02,31.44"/>
        <lane id="0_1" index="1" disallow="pedestrian" speed="13.90" length="5000.00" width="3.75" shape="5000.01,19.62 0.02,27.59"/>
        <lane id="0_2" index="2" disallow="pedestrian" speed="13.90" length="5000.00" width="3.75" shape="5000.00,15.78 0.01,23.74"/>
        <lane id="0_3" index="3" disallow="pedestrian" speed="13.90" length="5000.00" width="3.75" shape="5000.00,11.93 0.00,19.89"/>
    </edge>
    <edge id="1" from="Custom2" to="Custom3" priority="-1" shape="0.01,7.50 5000.01,7.50">
        <lane id="1_0" index="0" allow="pedestrian" speed="13.90" length="5000.00" width="3.75" shape="0.01,-5.98 5000.01,-5.98"/>
        <lane id="1_1" index="1" disallow="pedestrian" speed="13.90" length="5000.00" width="3.75" shape="0.01,-2.12 5000.01,-2.12"/>
        <lane id="1_2" index="2" disallow="pedestrian" speed="13.90" length="5000.00" width="3.75" shape="0.01,1.72 5000.01,1.72"/>
        <lane id="1_3" index="3" disallow="pedestrian" speed="13.90" length="5000.00" width="3.75" shape="0.01,5.57 5000.01,5.57"/>
    </edge>

    <junction id="Custom0" type="dead_end" x="5000.01" y="17.50" incLanes="" intLanes="" shape="4999.99,10.05 5000.02,25.35"/>
    <junction id="Custom1" type="dead_end" x="0.01" y="25.46" incLanes="0_0 0_1 0_2 0_3" intLanes="" shape="0.02,33.31 0.00,18.01"/>
    <junction id="Custom2" type="dead_end" x="0.01" y="0.00" incLanes="" intLanes="" shape="0.01,7.45 0.01,-7.85"/>
    <junction id="Custom3" type="dead_end" x="5000.01" y="0.00" incLanes="1_0 1_1 1_2 1_3" intLanes="" shape="5000.01,-7.85 5000.01,7.45"/>

</net>
