<?xml version='1.0' encoding='UTF-8'?>
<nodes>
  <node id="Custom0" x="0.0" y="8.75"/>
  <node id="Custom1" x="-4999.993658637697" y="16.713264582434142"/>
  <node id="Custom2" x="-5000.0" y="-8.75"/>
  <node id="Custom3" x="0.0" y="-8.75"/>
</nodes>
