<?xml version='1.0' encoding='UTF-8'?>
<nodes>
  <node id="Custom0" x="8.75" y="0.0"/>
  <node id="Custom1" x="8.75" y="5000.0"/>
  <node id="Custom2" x="-8.75" y="5000.0"/>
  <node id="Custom3" x="-8.74976794897" y="5.45696821064e-12"/>
</nodes>
