<?xml version="1.0" encoding="UTF-8"?>

<!-- generated on Tue Nov  9 12:14:08 2021 by SUMO netconvert Version 0.30.0
<?xml version="1.0" encoding="UTF-8"?>

<configuration xmlns:xsi="http://www.w3.org/2001/XMLSchema-instance" xsi:noNamespaceSchemaLocation="http://sumo.dlr.de/xsd/netconvertConfiguration.xsd">

    <input>
        <node-files value="projects/vehicles/worlds/highway_overtake_net/sumo.nod.xml"/>
        <edge-files value="projects/vehicles/worlds/highway_overtake_net/sumo.edg.xml"/>
    </input>

    <output>
        <output-file value="projects/vehicles/worlds/highway_overtake_net/sumo.net.xml"/>
    </output>

</configuration>
-->

<net version="0.27" xmlns:xsi="http://www.w3.org/2001/XMLSchema-instance" xsi:noNamespaceSchemaLocation="http://sumo.dlr.de/xsd/net_file.xsd">

    <location netOffset="5000.00,8.75" convBoundary="0.00,0.00,5000.00,17.50" origBoundary="-5000.00,-8.75,0.00,8.75" projParameter="!"/>

    <edge id="0" from="Custom0" to="Custom1" priority="-1" shape="5000.00,10.00 0.00,10.00">
        <lane id="0_0" index="0" allow="pedestrian" speed="13.90" length="5000.00" width="3.75" shape="5000.00,23.48 0.00,23.48"/>
        <lane id="0_1" index="1" disallow="pedestrian" speed="13.90" length="5000.00" width="3.75" shape="5000.00,19.62 0.00,19.62"/>
        <lane id="0_2" index="2" disallow="pedestrian" speed="13.90" length="5000.00" width="3.75" shape="5000.00,15.78 0.00,15.78"/>
        <lane id="0_3" index="3" disallow="pedestrian" speed="13.90" length="5000.00" width="3.75" shape="5000.00,11.93 0.00,11.93"/>
    </edge>
    <edge id="1" from="Custom2" to="Custom3" priority="-1" shape="0.00,7.50 5000.00,7.50">
        <lane id="1_0" index="0" allow="pedestrian" speed="13.90" length="5000.00" width="3.75" shape="0.00,-5.98 5000.00,-5.98"/>
        <lane id="1_1" index="1" disallow="pedestrian" speed="13.90" length="5000.00" width="3.75" shape="0.00,-2.12 5000.00,-2.12"/>
        <lane id="1_2" index="2" disallow="pedestrian" speed="13.90" length="5000.00" width="3.75" shape="0.00,1.72 5000.00,1.72"/>
        <lane id="1_3" index="3" disallow="pedestrian" speed="13.90" length="5000.00" width="3.75" shape="0.00,5.57 5000.00,5.57"/>
    </edge>

    <junction id="Custom0" type="dead_end" x="5000.00" y="17.50" incLanes="" intLanes="" shape="5000.00,10.05 5000.00,25.35"/>
    <junction id="Custom1" type="dead_end" x="0.00" y="17.50" incLanes="0_0 0_1 0_2 0_3" intLanes="" shape="0.00,25.35 0.00,10.05"/>
    <junction id="Custom2" type="dead_end" x="0.00" y="0.00" incLanes="" intLanes="" shape="0.00,7.45 0.00,-7.85"/>
    <junction id="Custom3" type="dead_end" x="5000.00" y="0.00" incLanes="1_0 1_1 1_2 1_3" intLanes="" shape="5000.00,-7.85 5000.00,7.45"/>

</net>
