<?xml version="1.0" encoding="UTF-8"?>

<!-- generated on Wed Nov  3 11:51:01 2021 by SUMO netconvert Version 0.30.0
<?xml version="1.0" encoding="UTF-8"?>

<configuration xmlns:xsi="http://www.w3.org/2001/XMLSchema-instance" xsi:noNamespaceSchemaLocation="http://sumo.dlr.de/xsd/netconvertConfiguration.xsd">

    <input>
        <node-files value="/home/joachimhgg/webots_develop/resources/sumo_exporter/myMap_net/sumo.nod.xml"/>
        <edge-files value="/home/joachimhgg/webots_develop/resources/sumo_exporter/myMap_net/sumo.edg.xml"/>
    </input>

    <output>
        <output-file value="/home/joachimhgg/webots_develop/resources/sumo_exporter/myMap_net/sumo.net.xml"/>
    </output>

    <processing>
        <no-internal-links value="true"/>
        <no-turnarounds value="true"/>
        <offset.disable-normalization value="true"/>
        <lefthand value="false"/>
        <junctions.corner-detail value="0"/>
        <rectangular-lane-cut value="false"/>
    </processing>

    <visualisation>
        <registry-viewport value="true"/>
    </visualisation>

</configuration>
-->

<net version="0.27" xmlns:xsi="http://www.w3.org/2001/XMLSchema-instance" xsi:noNamespaceSchemaLocation="http://sumo.dlr.de/xsd/net_file.xsd">

    <location netOffset="0.00,8.75" convBoundary="0.00,0.00,5000.01,25.46" origBoundary="0.00,-8.75,5000.01,16.71" projParameter="!"/>

    <edge id="-0" from="Custom1" to="Custom0" priority="-1" spreadType="center">
        <lane id="-0_0" index="0" allow="pedestrian" speed="13.90" length="5000.00" width="3.75" shape="4999.98,23.47 -0.01,23.47"/>
        <lane id="-0_1" index="1" disallow="pedestrian" speed="13.90" length="5000.00" width="3.75" shape="4999.99,19.62 -0.00,19.62"/>
        <lane id="-0_2" index="2" disallow="pedestrian" speed="13.90" length="5000.00" width="3.75" shape="5000.00,15.78 0.00,15.78"/>
        <lane id="-0_3" index="3" disallow="pedestrian" speed="13.90" length="5000.00" width="3.75" shape="5000.00,11.93 0.01,11.93"/>
    </edge>
    <edge id="-1" from="Custom3" to="Custom2" priority="-1" spreadType="center">
        <lane id="-1_0" index="0" allow="pedestrian" speed="13.90" length="5000.00" width="3.75" shape="0.00,-5.98 5000.00,-5.98"/>
        <lane id="-1_1" index="1" disallow="pedestrian" speed="13.90" length="5000.00" width="3.75" shape="0.00,-2.12 5000.00,-2.12"/>
        <lane id="-1_2" index="2" disallow="pedestrian" speed="13.90" length="5000.00" width="3.75" shape="0.00,1.72 5000.00,1.72"/>
        <lane id="-1_3" index="3" disallow="pedestrian" speed="13.90" length="5000.00" width="3.75" shape="0.00,5.57 5000.00,5.57"/>
    </edge>

    <junction id="Custom0" type="dead_end" x="0.00" y="17.50" incLanes="-0_0 -0_1 -0_2 -0_3" intLanes="" shape="-0.01,25.35 0.01,10.05"/>
    <junction id="Custom1" type="dead_end" x="4999.99" y="25.46" incLanes="" intLanes="" shape="5000.01,18.01 4999.98,33.31"/>
    <junction id="Custom2" type="dead_end" x="5000.00" y="0.00" incLanes="-1_0 -1_1 -1_2 -1_3" intLanes="" shape="5000.00,-7.85 5000.00,7.45"/>
    <junction id="Custom3" type="dead_end" x="0.00" y="0.00" incLanes="" intLanes="" shape="0.00,7.45 0.00,-7.85"/>

</net>
