<?xml version='1.0' encoding='UTF-8'?>
<edges>
  <edge id="-0" to="Custom0" from="Custom1" numLanes="4" width="3.75" shape="5000.005604,9.213274 0.011945,1.250010 "/>
  <edge id="-1" to="Custom2" from="Custom3" numLanes="4" width="3.75" shape="0.000000,-1.250000 5000.000000,-1.250000 "/>
</edges>
