<?xml version='1.0' encoding='UTF-8'?>
<nodes>
  <node id="28" x="93.0" y="-76.500107"/>
  <node id="29" x="133.50015" y="-36.0"/>
  <node id="30" x="174.0" y="4.500405"/>
  <node id="31" x="133.49978" y="45.000035"/>
  <node id="32" x="231.0" y="-64.499851"/>
  <node id="33" x="190.50007" y="-104.99975"/>
  <node id="34" x="52.500074" y="-165.0"/>
  <node id="35" x="-97.499835" y="-165.00028"/>
  <node id="36" x="-187.5" y="-75.0"/>
  <node id="37" x="-104.99975" y="-4.5"/>
  <node id="38" x="-105.0" y="64.5"/>
  <node id="39" x="-64.499926" y="104.99987"/>
  <node id="40" x="4.4999794" y="105.0"/>
  <node id="41" x="-4.4999256" y="45.000015"/>
  <node id="42" x="-45.0" y="4.5"/>
  <node id="43" x="4.5000744" y="-45.0"/>
  <node id="44" x="45.00011" y="-4.4998512"/>
  <node id="45" x="-4.4999256" y="-105.0"/>
  <node id="25" x="-45.0" y="-45.0" shape="-55.750002,-55.749998 -55.749998,-34.249998 -34.249998,-34.250002 -34.250002,-55.750002 -55.750002,-55.749998"/>
  <node id="26" x="45.0" y="45.0" shape="34.249998,34.250002 34.250002,55.750002 55.750002,55.749998 55.749998,34.249998 34.249998,34.250002"/>
  <node id="27" x="93.0" y="-105.0" shape="82.249998,-115.749998 82.250002,-94.249998 103.750002,-94.250002 103.749998,-115.750002 82.249998,-115.749998"/>
  <node id="Custom21" x="-187.501326795" y="174.999999996"/>
  <node id="Custom22" x="231.0" y="135.5"/>
</nodes>
