<?xml version='1.0' encoding='UTF-8'?>
<nodes>
  <node id="28" x="76.500107" y="93.0"/>
  <node id="29" x="36.0" y="133.50015"/>
  <node id="30" x="-4.500405" y="174.0"/>
  <node id="31" x="-45.000035" y="133.49978"/>
  <node id="32" x="64.499851" y="231.0"/>
  <node id="33" x="104.99975" y="190.50007"/>
  <node id="34" x="165.0" y="52.500074"/>
  <node id="35" x="165.00028" y="-97.499835"/>
  <node id="36" x="75.0" y="-187.5"/>
  <node id="37" x="4.5" y="-104.99975"/>
  <node id="38" x="-64.5" y="-105.0"/>
  <node id="39" x="-104.99987" y="-64.499926"/>
  <node id="40" x="-105.0" y="4.4999794"/>
  <node id="41" x="-45.000015" y="-4.4999256"/>
  <node id="42" x="-4.5" y="-45.0"/>
  <node id="43" x="45.0" y="4.5000744"/>
  <node id="44" x="4.4998512" y="45.00011"/>
  <node id="45" x="105.0" y="-4.4999256"/>
  <node id="25" x="45.0" y="-45.0" shape="55.750002,-34.250002 34.250002,-34.249998 34.249998,-55.749998 55.749998,-55.750002 55.750002,-34.250002"/>
  <node id="26" x="-45.0" y="45.0" shape="-34.249998,55.749998 -55.749998,55.750002 -55.750002,34.250002 -34.250002,34.249998 -34.249998,55.749998"/>
  <node id="27" x="105.0" y="93.0" shape="115.750002,103.749998 94.250002,103.750002 94.249998,82.250002 115.749998,82.249998 115.750002,103.749998"/>
  <node id="Custom21" x="-174.9999998667179" y="-187.50816339744682"/>
  <node id="Custom22" x="-135.4999998933743" y="231.00653071795747"/>
</nodes>
