<?xml version="1.0" encoding="UTF-8"?>

<!-- generated on 14.07.2017 15:32:40 by Netedit Version 0.30.0
<?xml version="1.0" encoding="UTF-8"?>

<configuration xmlns:xsi="http://www.w3.org/2001/XMLSchema-instance" xsi:noNamespaceSchemaLocation="http://sumo.dlr.de/xsd/netconvertConfiguration.xsd">

    <input>
        <sumo-net-file value="C:\msys64\home\David\develop\webots-develop\projects\automobile\worlds\city_traffic_net\sumo.net.xml"/>
    </input>

    <output>
        <output-file value="C:\msys64\home\David\develop\webots-develop\projects\automobile\worlds\city_traffic_net\sumo.net.xml"/>
    </output>

    <processing>
        <no-turnarounds value="true"/>
        <offset.disable-normalization value="true"/>
        <lefthand value="false"/>
        <junctions.corner-detail value="0"/>
        <rectangular-lane-cut value="false"/>
    </processing>

    <visualisation>
        <registry-viewport value="true"/>
    </visualisation>

</configuration>
-->

<net version="0.27" xmlns:xsi="http://www.w3.org/2001/XMLSchema-instance" xsi:noNamespaceSchemaLocation="http://sumo.dlr.de/xsd/net_file.xsd">

    <location netOffset="187.50,165.00" convBoundary="0.00,0.00,418.50,340.00" origBoundary="-187.50,-165.00,231.00,175.00" projParameter="!"/>

    <edge id=":25_0" function="internal">
        <lane id=":25_0_0" index="0" speed="13.90" length="1.53" width="5.38" shape="134.28,130.75 132.75,130.75"/>
    </edge>
    <edge id=":25_1" function="internal">
        <lane id=":25_1_0" index="0" speed="13.90" length="4.48" width="5.38" shape="134.28,130.75 134.12,129.41 133.65,128.47 132.86,127.93 131.75,127.79"/>
    </edge>
    <edge id=":25_2" function="internal">
        <lane id=":25_2_0" index="0" speed="13.90" length="1.53" width="5.38" shape="139.76,130.75 138.23,130.75"/>
    </edge>
    <edge id=":25_3" function="internal">
        <lane id=":25_3_0" index="0" speed="13.90" length="21.76" width="5.38" shape="139.76,130.75 140.60,124.85 143.13,120.63 147.35,118.10 153.25,117.26"/>
    </edge>
    <edge id=":25_4" function="internal">
        <lane id=":25_4_0" index="0" speed="13.90" length="1.52" width="5.38" shape="149.21,130.75 150.72,130.75"/>
    </edge>
    <edge id=":25_5" function="internal">
        <lane id=":25_5_0" index="0" speed="13.90" length="19.89" width="5.38" shape="149.21,130.75 149.82,122.45 150.70,116.52 151.84,112.97 153.25,111.78"/>
    </edge>
    <edge id=":25_6" function="internal">
        <lane id=":25_6_0" index="0" speed="13.90" length="1.52" width="5.38" shape="143.72,130.75 145.24,130.75"/>
    </edge>
    <edge id=":25_7" function="internal">
        <lane id=":25_7_0" index="0" speed="13.90" length="16.96" width="5.38" shape="143.72,130.75 143.14,126.82 140.96,124.10 137.16,122.60 131.75,122.30"/>
    </edge>
    <edge id=":25_8" function="internal">
        <lane id=":25_8_0" index="0" speed="13.90" length="4.08" width="5.38" shape="153.25,128.22 152.14,128.38 151.35,128.85 150.88,129.64 150.72,130.75"/>
    </edge>
    <edge id=":25_9" function="internal">
        <lane id=":25_9_0" index="0" speed="13.90" length="21.50" width="5.38" shape="153.25,128.22 131.75,127.79"/>
    </edge>
    <edge id=":25_10" function="internal">
        <lane id=":25_10_0" index="0" speed="13.90" length="18.79" width="5.38" shape="153.25,122.74 146.83,123.24 142.19,124.74 139.32,127.25 138.23,130.75"/>
    </edge>
    <edge id=":25_11" function="internal">
        <lane id=":25_11_0" index="0" speed="13.90" length="21.50" width="5.38" shape="153.25,122.74 131.75,122.30"/>
    </edge>
    <edge id=":25_12" function="internal">
        <lane id=":25_12_0" index="0" speed="13.90" length="21.50" width="5.38" shape="131.75,111.33 153.25,111.78"/>
    </edge>
    <edge id=":25_13" function="internal">
        <lane id=":25_13_0" index="0" speed="13.90" length="19.70" width="5.38" shape="131.75,111.33 132.55,112.51 132.99,116.13 133.05,122.22 132.75,130.75"/>
    </edge>
    <edge id=":25_14" function="internal">
        <lane id=":25_14_0" index="0" speed="13.90" length="21.50" width="5.38" shape="131.75,116.82 153.25,117.26"/>
    </edge>
    <edge id=":25_15" function="internal">
        <lane id=":25_15_0" index="0" speed="13.90" length="10.56" width="5.38" shape="131.75,116.82 137.65,117.43 141.62,119.81"/>
    </edge>
    <edge id=":25_16" function="internal">
        <lane id=":25_16_0" index="0" speed="13.90" length="11.80" width="5.38" shape="141.62,119.81 141.87,119.96 144.40,124.40 145.24,130.75"/>
    </edge>
    <edge id=":26_0" function="internal">
        <lane id=":26_0_0" index="0" speed="13.90" length="3.70" width="5.38" shape="243.25,218.22 242.38,218.38 241.73,218.85 241.32,219.64 241.15,220.75"/>
    </edge>
    <edge id=":26_1" function="internal">
        <lane id=":26_1_0" index="0" speed="13.90" length="21.50" width="5.38" shape="243.25,218.22 221.75,218.22"/>
    </edge>
    <edge id=":26_2" function="internal">
        <lane id=":26_2_0" index="0" speed="13.90" length="17.56" width="5.38" shape="243.25,212.74 237.35,213.24 233.13,214.74 230.60,217.25 229.76,220.75"/>
    </edge>
    <edge id=":26_3" function="internal">
        <lane id=":26_3_0" index="0" speed="13.90" length="21.50" width="5.38" shape="243.25,212.74 221.75,212.74"/>
    </edge>
    <edge id=":26_4" function="internal">
        <lane id=":26_4_0" index="0" speed="13.90" length="21.50" width="5.38" shape="221.75,201.78 243.25,201.78"/>
    </edge>
    <edge id=":26_5" function="internal">
        <lane id=":26_5_0" index="0" speed="13.90" length="19.51" width="5.38" shape="221.75,201.78 222.86,202.97 223.65,206.52 224.12,212.45 224.28,220.75"/>
    </edge>
    <edge id=":26_6" function="internal">
        <lane id=":26_6_0" index="0" speed="13.90" length="21.50" width="5.38" shape="221.75,207.26 243.25,207.26"/>
    </edge>
    <edge id=":26_7" function="internal">
        <lane id=":26_7_0" index="0" speed="13.90" length="10.31" width="5.38" shape="221.75,207.26 228.08,208.10 231.49,210.05"/>
    </edge>
    <edge id=":26_16" function="internal">
        <lane id=":26_16_0" index="0" speed="13.90" length="12.02" width="5.38" shape="231.49,210.05 232.51,210.63 235.03,214.85 235.66,220.75"/>
    </edge>
    <edge id=":26_8" function="internal">
        <lane id=":26_8_0" index="0" speed="13.90" length="0.41" width="5.38" shape="224.69,220.75 224.28,220.75"/>
    </edge>
    <edge id=":26_9" function="internal">
        <lane id=":26_9_0" index="0" speed="13.90" length="4.46" width="5.38" shape="224.69,220.75 224.55,219.64 224.02,218.85 223.08,218.38 221.75,218.22"/>
    </edge>
    <edge id=":26_10" function="internal">
        <lane id=":26_10_0" index="0" speed="13.90" length="0.41" width="5.38" shape="230.18,220.75 229.76,220.75"/>
    </edge>
    <edge id=":26_11" function="internal">
        <lane id=":26_11_0" index="0" speed="13.90" length="21.19" width="5.38" shape="230.18,220.75 231.23,214.85 233.77,210.63 237.77,208.10 243.25,207.26"/>
    </edge>
    <edge id=":26_12" function="internal">
        <lane id=":26_12_0" index="0" speed="13.90" length="0.43" width="5.38" shape="240.72,220.75 241.15,220.75"/>
    </edge>
    <edge id=":26_13" function="internal">
        <lane id=":26_13_0" index="0" speed="13.90" length="19.51" width="5.38" shape="240.72,220.75 240.88,212.45 241.35,206.52 242.14,202.97 243.25,201.78"/>
    </edge>
    <edge id=":26_14" function="internal">
        <lane id=":26_14_0" index="0" speed="13.90" length="0.43" width="5.38" shape="235.24,220.75 235.66,220.75"/>
    </edge>
    <edge id=":26_15" function="internal">
        <lane id=":26_15_0" index="0" speed="13.90" length="17.56" width="5.38" shape="235.24,220.75 234.40,217.25 231.87,214.74 227.65,213.24 221.75,212.74"/>
    </edge>
    <edge id=":27_0" function="internal">
        <lane id=":27_0_0" index="0" speed="13.90" length="1.44" width="5.38" shape="272.28,70.75 273.72,70.75"/>
    </edge>
    <edge id=":27_1" function="internal">
        <lane id=":27_1_0" index="0" speed="13.90" length="4.08" width="5.38" shape="272.28,70.75 272.12,69.64 271.65,68.85 270.86,68.38 269.75,68.22"/>
    </edge>
    <edge id=":27_2" function="internal">
        <lane id=":27_2_0" index="0" speed="13.90" length="1.44" width="5.38" shape="277.76,70.75 279.20,70.75"/>
    </edge>
    <edge id=":27_3" function="internal">
        <lane id=":27_3_0" index="0" speed="13.90" length="21.76" width="5.38" shape="277.76,70.75 278.60,64.85 281.13,60.63 285.35,58.10 291.25,57.26"/>
    </edge>
    <edge id=":27_4" function="internal">
        <lane id=":27_4_0" index="0" speed="13.90" length="1.45" width="5.38" shape="290.18,70.75 288.72,70.75"/>
    </edge>
    <edge id=":27_5" function="internal">
        <lane id=":27_5_0" index="0" speed="13.90" length="19.25" width="5.38" shape="290.18,70.75 289.90,62.45 289.99,56.52 290.44,52.97 291.25,51.78"/>
    </edge>
    <edge id=":27_6" function="internal">
        <lane id=":27_6_0" index="0" speed="13.90" length="1.45" width="5.38" shape="284.69,70.75 283.24,70.75"/>
    </edge>
    <edge id=":27_7" function="internal">
        <lane id=":27_7_0" index="0" speed="13.90" length="18.73" width="5.38" shape="284.69,70.75 283.61,67.25 280.76,64.74 276.14,63.24 269.75,62.74"/>
    </edge>
    <edge id=":27_8" function="internal">
        <lane id=":27_8_0" index="0" speed="13.90" length="4.08" width="5.38" shape="291.25,68.22 290.14,68.38 289.35,68.85 288.88,69.64 288.72,70.75"/>
    </edge>
    <edge id=":27_9" function="internal">
        <lane id=":27_9_0" index="0" speed="13.90" length="21.50" width="5.38" shape="291.25,68.22 269.75,68.22"/>
    </edge>
    <edge id=":27_10" function="internal">
        <lane id=":27_10_0" index="0" speed="13.90" length="16.43" width="5.38" shape="291.25,62.74 285.84,63.24 282.02,64.74 279.81,67.25 279.20,70.75"/>
    </edge>
    <edge id=":27_11" function="internal">
        <lane id=":27_11_0" index="0" speed="13.90" length="21.50" width="5.38" shape="291.25,62.74 269.75,62.74"/>
    </edge>
    <edge id=":27_12" function="internal">
        <lane id=":27_12_0" index="0" speed="13.90" length="21.50" width="5.38" shape="269.75,51.78 291.25,51.78"/>
    </edge>
    <edge id=":27_13" function="internal">
        <lane id=":27_13_0" index="0" speed="13.90" length="19.87" width="5.38" shape="269.75,51.78 271.15,52.97 272.27,56.52 273.13,62.45 273.72,70.75"/>
    </edge>
    <edge id=":27_14" function="internal">
        <lane id=":27_14_0" index="0" speed="13.90" length="21.50" width="5.38" shape="269.75,57.26 291.25,57.26"/>
    </edge>
    <edge id=":27_15" function="internal">
        <lane id=":27_15_0" index="0" speed="13.90" length="9.75" width="5.38" shape="269.75,57.26 275.65,58.10 278.90,60.05"/>
    </edge>
    <edge id=":27_16" function="internal">
        <lane id=":27_16_0" index="0" speed="13.90" length="12.01" width="5.38" shape="278.90,60.05 279.87,60.63 282.40,64.85 283.24,70.75"/>
    </edge>
    <edge id=":28_0" function="internal">
        <lane id=":28_0_0" index="0" speed="13.90" length="0.82" width="5.38" shape="272.30,89.19 272.28,88.23"/>
        <lane id=":28_0_1" index="1" speed="13.90" length="0.82" width="5.38" shape="277.78,88.91 277.76,88.23"/>
    </edge>
    <edge id=":28_2" function="internal">
        <lane id=":28_2_0" index="0" speed="13.90" length="0.27" width="5.38" shape="288.72,88.23 288.72,88.36"/>
        <lane id=":28_2_1" index="1" speed="13.90" length="0.27" width="5.38" shape="283.24,88.23 283.25,88.64"/>
    </edge>
    <edge id=":29_0" function="internal">
        <lane id=":29_0_0" index="0" speed="13.90" length="0.29" width="5.38" shape="320.74,137.22 320.46,137.20"/>
        <lane id=":29_0_1" index="1" speed="13.90" length="0.29" width="5.38" shape="321.01,131.74 320.72,131.73"/>
    </edge>
    <edge id=":29_2" function="internal">
        <lane id=":29_2_0" index="0" speed="13.90" length="0.31" width="5.38" shape="321.24,120.78 321.56,120.80"/>
        <lane id=":29_2_1" index="1" speed="13.90" length="0.31" width="5.38" shape="320.98,126.26 321.29,126.27"/>
    </edge>
    <edge id=":30_0" function="internal">
        <lane id=":30_0_0" index="0" speed="13.90" length="1.57" width="5.38" shape="369.69,168.59 369.71,169.13 369.72,169.50 369.71,169.87 369.69,170.41"/>
        <lane id=":30_0_1" index="1" speed="13.90" length="1.57" width="5.38" shape="364.21,168.85 364.23,169.23 364.24,169.50 364.23,169.77 364.21,170.15"/>
    </edge>
    <edge id=":30_2" function="internal">
        <lane id=":30_2_0" index="0" speed="13.90" length="0.52" width="5.38" shape="353.26,169.63 353.27,169.55 353.27,169.50 353.27,169.45 353.26,169.37"/>
        <lane id=":30_2_1" index="1" speed="13.90" length="0.52" width="5.38" shape="358.74,169.89 358.75,169.66 358.75,169.50 358.75,169.34 358.74,169.11"/>
    </edge>
    <edge id=":31_0" function="internal">
        <lane id=":31_0_0" index="0" speed="13.90" length="0.53" width="5.38" shape="321.53,218.20 320.87,218.22"/>
        <lane id=":31_0_1" index="1" speed="13.90" length="0.53" width="5.38" shape="321.26,212.73 320.87,212.74"/>
    </edge>
    <edge id=":31_2" function="internal">
        <lane id=":31_2_0" index="0" speed="13.90" length="0.13" width="5.38" shape="320.87,201.78 320.74,201.78"/>
        <lane id=":31_2_1" index="1" speed="13.90" length="0.13" width="5.38" shape="320.87,207.26 321.00,207.26"/>
    </edge>
    <edge id=":32_0" function="internal">
        <lane id=":32_0_0" index="0" speed="13.90" length="0.13" width="5.38" shape="410.28,100.63 410.28,100.76"/>
        <lane id=":32_0_1" index="1" speed="13.90" length="0.13" width="5.38" shape="415.76,100.63 415.76,100.50"/>
    </edge>
    <edge id=":32_2" function="internal">
        <lane id=":32_2_0" index="0" speed="13.90" length="0.53" width="5.38" shape="426.70,99.97 426.72,100.63"/>
        <lane id=":32_2_1" index="1" speed="13.90" length="0.53" width="5.38" shape="421.23,100.24 421.24,100.63"/>
    </edge>
    <edge id=":33_0" function="internal">
        <lane id=":33_0_0" index="0" speed="13.90" length="0.27" width="5.38" shape="377.86,68.22 377.73,68.22"/>
        <lane id=":33_0_1" index="1" speed="13.90" length="0.27" width="5.38" shape="378.14,62.75 377.73,62.74"/>
    </edge>
    <edge id=":33_2" function="internal">
        <lane id=":33_2_0" index="0" speed="13.90" length="0.82" width="5.38" shape="377.73,51.78 378.69,51.80"/>
        <lane id=":33_2_1" index="1" speed="13.90" length="0.82" width="5.38" shape="377.73,57.26 378.41,57.28"/>
    </edge>
    <edge id=":34_0" function="internal">
        <lane id=":34_0_0" index="0" speed="13.90" length="0.27" width="5.38" shape="239.86,8.22 239.73,8.22"/>
        <lane id=":34_0_1" index="1" speed="13.90" length="0.27" width="5.38" shape="240.14,2.75 239.73,2.74"/>
    </edge>
    <edge id=":34_2" function="internal">
        <lane id=":34_2_0" index="0" speed="13.90" length="0.82" width="5.38" shape="239.73,-8.22 240.69,-8.20"/>
        <lane id=":34_2_1" index="1" speed="13.90" length="0.82" width="5.38" shape="239.73,-2.74 240.41,-2.72"/>
    </edge>
    <edge id=":35_0" function="internal">
        <lane id=":35_0_0" index="0" speed="13.90" length="0.13" width="5.38" shape="90.14,8.22 90.26,8.22"/>
        <lane id=":35_0_1" index="1" speed="13.90" length="0.13" width="5.38" shape="90.14,2.74 90.00,2.74"/>
    </edge>
    <edge id=":35_2" function="internal">
        <lane id=":35_2_0" index="0" speed="13.90" length="0.54" width="5.38" shape="89.46,-8.20 90.14,-8.22"/>
        <lane id=":35_2_1" index="1" speed="13.90" length="0.54" width="5.38" shape="89.73,-2.73 90.14,-2.74"/>
    </edge>
    <edge id=":36_0" function="internal">
        <lane id=":36_0_0" index="0" speed="13.90" length="0.54" width="5.38" shape="-8.22,90.14 -8.20,89.46"/>
        <lane id=":36_0_1" index="1" speed="13.90" length="0.54" width="5.38" shape="-2.74,90.14 -2.73,89.73"/>
    </edge>
    <edge id=":36_2" function="internal">
        <lane id=":36_2_0" index="0" speed="13.90" length="0.13" width="5.38" shape="8.22,90.26 8.22,90.14"/>
        <lane id=":36_2_1" index="1" speed="13.90" length="0.13" width="5.38" shape="2.74,90.00 2.74,90.14"/>
    </edge>
    <edge id=":37_0" function="internal">
        <lane id=":37_0_0" index="0" speed="13.90" length="0.82" width="5.38" shape="74.28,160.77 74.30,159.81"/>
        <lane id=":37_0_1" index="1" speed="13.90" length="0.82" width="5.38" shape="79.76,160.77 79.78,160.09"/>
    </edge>
    <edge id=":37_2" function="internal">
        <lane id=":37_2_0" index="0" speed="13.90" length="0.27" width="5.38" shape="90.72,160.64 90.72,160.77"/>
        <lane id=":37_2_1" index="1" speed="13.90" length="0.27" width="5.38" shape="85.25,160.36 85.24,160.77"/>
    </edge>
    <edge id=":38_0" function="internal">
        <lane id=":38_0_0" index="0" speed="13.90" length="0.82" width="5.38" shape="74.30,230.19 74.28,229.23"/>
        <lane id=":38_0_1" index="1" speed="13.90" length="0.82" width="5.38" shape="79.78,229.91 79.76,229.23"/>
    </edge>
    <edge id=":38_2" function="internal">
        <lane id=":38_2_0" index="0" speed="13.90" length="0.27" width="5.38" shape="90.72,229.23 90.72,229.36"/>
        <lane id=":38_2_1" index="1" speed="13.90" length="0.27" width="5.38" shape="85.24,229.23 85.25,229.64"/>
    </edge>
    <edge id=":39_0" function="internal">
        <lane id=":39_0_0" index="0" speed="13.90" length="0.53" width="5.38" shape="123.13,278.22 122.47,278.20"/>
        <lane id=":39_0_1" index="1" speed="13.90" length="0.53" width="5.38" shape="123.13,272.74 122.74,272.73"/>
    </edge>
    <edge id=":39_2" function="internal">
        <lane id=":39_2_0" index="0" speed="13.90" length="0.13" width="5.38" shape="123.26,261.78 123.13,261.78"/>
        <lane id=":39_2_1" index="1" speed="13.90" length="0.13" width="5.38" shape="123.00,267.26 123.13,267.26"/>
    </edge>
    <edge id=":40_0" function="internal">
        <lane id=":40_0_0" index="0" speed="13.90" length="0.53" width="5.38" shape="192.53,278.20 191.87,278.22"/>
        <lane id=":40_0_1" index="1" speed="13.90" length="0.53" width="5.38" shape="192.26,272.73 191.87,272.74"/>
    </edge>
    <edge id=":40_2" function="internal">
        <lane id=":40_2_0" index="0" speed="13.90" length="0.13" width="5.38" shape="191.87,261.78 191.74,261.78"/>
        <lane id=":40_2_1" index="1" speed="13.90" length="0.13" width="5.38" shape="191.87,267.26 192.00,267.26"/>
    </edge>
    <edge id=":41_0" function="internal">
        <lane id=":41_0_0" index="0" speed="13.90" length="0.53" width="5.38" shape="183.13,218.22 182.47,218.20"/>
        <lane id=":41_0_1" index="1" speed="13.90" length="0.53" width="5.38" shape="183.13,212.74 182.74,212.73"/>
    </edge>
    <edge id=":41_2" function="internal">
        <lane id=":41_2_0" index="0" speed="13.90" length="0.13" width="5.38" shape="183.26,201.78 183.13,201.78"/>
        <lane id=":41_2_1" index="1" speed="13.90" length="0.13" width="5.38" shape="183.00,207.26 183.13,207.26"/>
    </edge>
    <edge id=":42_0" function="internal">
        <lane id=":42_0_0" index="0" speed="13.90" length="0.82" width="5.38" shape="134.30,170.19 134.28,169.23"/>
        <lane id=":42_0_1" index="1" speed="13.90" length="0.82" width="5.38" shape="139.78,169.91 139.76,169.23"/>
    </edge>
    <edge id=":42_2" function="internal">
        <lane id=":42_2_0" index="0" speed="13.90" length="0.27" width="5.38" shape="150.72,169.23 150.72,169.36"/>
        <lane id=":42_2_1" index="1" speed="13.90" length="0.27" width="5.38" shape="145.24,169.23 145.25,169.64"/>
    </edge>
    <edge id=":43_0" function="internal">
        <lane id=":43_0_0" index="0" speed="13.90" length="0.27" width="5.38" shape="191.86,128.22 191.73,128.22"/>
        <lane id=":43_0_1" index="1" speed="13.90" length="0.27" width="5.38" shape="192.14,122.75 191.73,122.74"/>
    </edge>
    <edge id=":43_2" function="internal">
        <lane id=":43_2_0" index="0" speed="13.90" length="0.82" width="5.38" shape="191.73,111.78 192.69,111.80"/>
        <lane id=":43_2_1" index="1" speed="13.90" length="0.82" width="5.38" shape="191.73,117.26 192.41,117.28"/>
    </edge>
    <edge id=":43_4" function="internal">
        <lane id=":43_4_0" index="0" speed="13.90" length="4.00" width="5.38" shape="191.73,117.26 193.78,118.63 194.47,120.00"/>
    </edge>
    <edge id=":43_5" function="internal">
        <lane id=":43_5_0" index="0" speed="13.90" length="4.00" width="5.38" shape="194.47,120.00 193.78,121.37 191.73,122.74"/>
    </edge>
    <edge id=":44_0" function="internal">
        <lane id=":44_0_0" index="0" speed="13.90" length="0.13" width="5.38" shape="224.28,160.63 224.28,160.76"/>
        <lane id=":44_0_1" index="1" speed="13.90" length="0.13" width="5.38" shape="229.76,160.63 229.76,160.50"/>
    </edge>
    <edge id=":44_2" function="internal">
        <lane id=":44_2_0" index="0" speed="13.90" length="4.00" width="5.38" shape="229.76,160.63 231.13,158.58 232.50,157.89"/>
    </edge>
    <edge id=":44_6" function="internal">
        <lane id=":44_6_0" index="0" speed="13.90" length="4.00" width="5.38" shape="232.50,157.89 233.87,158.58 235.24,160.63"/>
    </edge>
    <edge id=":44_3" function="internal">
        <lane id=":44_3_0" index="0" speed="13.90" length="0.53" width="5.38" shape="240.70,159.97 240.72,160.63"/>
        <lane id=":44_3_1" index="1" speed="13.90" length="0.53" width="5.38" shape="235.23,160.24 235.24,160.63"/>
    </edge>
    <edge id=":44_5" function="internal">
        <lane id=":44_5_0" index="0" speed="13.90" length="4.00" width="5.38" shape="235.23,160.24 233.96,162.35 232.62,163.10"/>
    </edge>
    <edge id=":44_7" function="internal">
        <lane id=":44_7_0" index="0" speed="13.90" length="4.00" width="5.38" shape="232.62,163.10 231.22,162.48 229.76,160.50"/>
    </edge>
    <edge id=":45_0" function="internal">
        <lane id=":45_0_0" index="0" speed="13.90" length="0.27" width="5.38" shape="183.27,68.22 183.14,68.22"/>
        <lane id=":45_0_1" index="1" speed="13.90" length="0.27" width="5.38" shape="183.27,62.74 182.86,62.75"/>
    </edge>
    <edge id=":45_2" function="internal">
        <lane id=":45_2_0" index="0" speed="13.90" length="0.82" width="5.38" shape="182.31,51.80 183.27,51.78"/>
        <lane id=":45_2_1" index="1" speed="13.90" length="0.82" width="5.38" shape="182.59,57.28 183.27,57.26"/>
    </edge>
    <edge id=":Custom21_0" function="internal">
        <lane id=":Custom21_0_0" index="0" speed="13.90" length="8.00" width="5.38" shape="2.74,340.00 1.37,342.06 0.00,342.74 -1.37,342.06 -2.74,340.00"/>
    </edge>
    <edge id=":Custom22_0" function="internal">
        <lane id=":Custom22_0_0" index="0" speed="13.90" length="8.00" width="5.38" shape="421.24,300.50 419.87,302.56 418.50,303.24 417.13,302.56 415.76,300.50"/>
    </edge>

    <edge id="-0" from="26" to="40" priority="-1" shape="232.50,229.50 232.31,233.47 231.72,237.40 230.76,241.26 229.42,245.00 227.72,248.59 225.68,252.00 223.31,255.19 220.64,258.14 217.69,260.81 214.50,263.18 211.09,265.22 207.50,266.92 203.76,268.26 199.90,269.22 195.97,269.81 192.00,270.00">
        <lane id="-0_0" index="0" speed="13.90" length="80.57" width="5.38" shape="241.15,220.75 240.50,234.28 239.79,239.01 238.64,243.64 237.02,248.15 234.98,252.47 232.52,256.57 229.67,260.41 226.46,263.96 222.91,267.17 219.07,270.02 214.97,272.48 210.65,274.52 206.14,276.14 201.51,277.29 196.78,278.00 192.53,278.20"/>
        <lane id="-0_1" index="1" speed="13.90" length="80.57" width="5.38" shape="235.66,220.75 235.04,233.74 234.41,237.94 233.39,242.05 231.95,246.05 230.14,249.88 227.96,253.52 225.43,256.93 222.58,260.08 219.43,262.93 216.02,265.46 212.38,267.64 208.55,269.45 204.55,270.89 200.44,271.91 196.24,272.54 192.26,272.73"/>
    </edge>
    <edge id="-1" from="39" to="40" priority="-1">
        <lane id="-1_0" index="0" speed="13.90" length="68.73" width="5.38" shape="123.13,261.78 191.87,261.78"/>
        <lane id="-1_1" index="1" speed="13.90" length="68.73" width="5.38" shape="123.13,267.26 191.87,267.26"/>
    </edge>
    <edge id="-10" from="25" to="45" priority="-1" shape="142.50,100.50 142.70,96.53 143.28,92.60 144.25,88.74 145.58,85.00 147.28,81.41 149.33,78.00 151.69,74.81 154.36,71.86 157.31,69.19 160.50,66.83 163.91,64.78 167.50,63.08 171.24,61.74 175.10,60.78 179.03,60.20 183.00,60.00">
        <lane id="-10_0" index="0" speed="13.90" length="101.94" width="5.38" shape="132.75,130.75 134.51,95.72 135.21,90.99 136.37,86.36 137.97,81.86 140.03,77.52 142.49,73.43 145.32,69.59 148.54,66.04 152.09,62.82 155.93,59.99 160.02,57.53 164.35,55.48 168.86,53.86 173.50,52.71 178.22,52.01 182.31,51.80"/>
        <lane id="-10_1" index="1" speed="13.90" length="101.94" width="5.38" shape="138.23,130.75 139.97,96.26 140.59,92.06 141.62,87.95 143.04,83.95 144.86,80.11 147.05,76.48 149.57,73.07 152.42,69.92 155.57,67.07 158.98,64.55 162.61,62.36 166.45,60.55 170.45,59.11 174.57,58.09 178.76,57.47 182.59,57.28"/>
    </edge>
    <edge id="-11" from="36" to="35" priority="-1" shape="0.00,90.00 0.43,81.18 1.73,72.44 3.88,63.87 6.85,55.56 10.63,47.57 15.17,40.00 20.43,32.91 26.36,26.36 32.91,20.43 40.00,15.17 47.58,10.63 55.56,6.85 63.88,3.88 72.44,1.73 81.18,0.43 90.00,0.00">
        <lane id="-11_0" index="0" speed="13.90" length="149.12" width="5.38" shape="-8.20,89.46 -7.76,80.37 -6.34,70.83 -4.00,61.48 -0.75,52.41 3.37,43.69 8.33,35.43 14.07,27.69 20.54,20.54 27.69,14.07 35.43,8.33 43.70,3.37 52.41,-0.75 61.49,-4.00 70.83,-6.34 80.37,-7.76 89.46,-8.20"/>
        <lane id="-11_1" index="1" speed="13.90" length="149.12" width="5.38" shape="-2.73,89.73 -2.30,80.91 -0.96,71.90 1.25,63.07 4.32,54.51 8.21,46.28 12.89,38.48 18.31,31.17 24.42,24.42 31.17,18.31 38.48,12.89 46.29,8.21 54.51,4.32 63.08,1.25 71.90,-0.96 80.91,-2.30 89.73,-2.73"/>
    </edge>
    <edge id="-12" from="28" to="27" priority="-1" shape="280.50,88.50 280.50,79.50">
        <lane id="-12_0" index="0" speed="13.90" length="17.48" width="5.38" shape="272.28,88.23 272.28,70.75"/>
        <lane id="-12_1" index="1" speed="13.90" length="17.48" width="5.38" shape="277.76,88.23 277.76,70.75"/>
    </edge>
    <edge id="-13" from="Custom21" to="36" priority="-1">
        <lane id="-13_0" index="0" speed="13.90" length="249.86" width="5.38" shape="-8.22,340.00 -8.22,90.14"/>
        <lane id="-13_1" index="1" speed="13.90" length="249.86" width="5.38" shape="-2.74,340.00 -2.74,90.14"/>
    </edge>
    <edge id="-14" from="35" to="34" priority="-1">
        <lane id="-14_0" index="0" speed="13.90" length="149.59" width="5.38" shape="90.14,-8.22 239.73,-8.22"/>
        <lane id="-14_1" index="1" speed="13.90" length="149.59" width="5.38" shape="90.14,-2.74 239.73,-2.74"/>
    </edge>
    <edge id="-15" from="Custom22" to="32" priority="-1">
        <lane id="-15_0" index="0" speed="13.90" length="199.87" width="5.38" shape="410.28,300.50 410.28,100.63"/>
        <lane id="-15_1" index="1" speed="13.90" length="199.87" width="5.38" shape="415.76,300.50 415.76,100.63"/>
    </edge>
    <edge id="-16" from="33" to="27" priority="-1" shape="378.00,60.00 300.00,60.00">
        <lane id="-16_0" index="0" speed="13.90" length="86.48" width="5.38" shape="377.73,68.22 291.25,68.22"/>
        <lane id="-16_1" index="1" speed="13.90" length="86.48" width="5.38" shape="377.73,62.74 291.25,62.74"/>
    </edge>
    <edge id="-17" from="27" to="45" priority="-1" shape="261.00,60.00 183.00,60.00">
        <lane id="-17_0" index="0" speed="13.90" length="86.48" width="5.38" shape="269.75,68.22 183.27,68.22"/>
        <lane id="-17_1" index="1" speed="13.90" length="86.48" width="5.38" shape="269.75,62.74 183.27,62.74"/>
    </edge>
    <edge id="-18" from="29" to="28" priority="-1" shape="321.00,129.00 317.03,128.81 313.10,128.22 309.24,127.26 305.50,125.92 301.91,124.22 298.50,122.18 295.31,119.81 292.36,117.14 289.69,114.19 287.33,111.00 285.28,107.59 283.58,104.00 282.25,100.26 281.28,96.40 280.70,92.47 280.50,88.50">
        <lane id="-18_0" index="0" speed="13.90" length="71.24" width="5.38" shape="320.46,137.20 316.22,137.00 311.49,136.29 306.86,135.14 302.35,133.52 298.03,131.48 293.93,129.02 290.09,126.17 286.54,122.96 283.32,119.41 280.49,115.57 278.03,111.48 275.97,107.14 274.37,102.64 273.21,98.01 272.51,93.28 272.30,89.19"/>
        <lane id="-18_1" index="1" speed="13.90" length="71.24" width="5.38" shape="320.72,131.73 316.76,131.54 312.56,130.91 308.45,129.89 304.45,128.45 300.62,126.64 296.98,124.46 293.57,121.93 290.42,119.08 287.57,115.93 285.05,112.52 282.86,108.89 281.04,105.05 279.62,101.05 278.59,96.94 277.97,92.74 277.78,88.91"/>
    </edge>
    <edge id="-19" from="33" to="32" priority="-1" shape="378.00,60.00 381.97,60.20 385.90,60.78 389.76,61.74 393.50,63.08 397.09,64.78 400.50,66.83 403.69,69.19 406.64,71.86 409.31,74.81 411.68,78.00 413.72,81.41 415.42,85.00 416.76,88.74 417.72,92.60 418.31,96.53 418.50,100.50">
        <lane id="-19_0" index="0" speed="13.90" length="71.26" width="5.38" shape="378.69,51.80 382.78,52.01 387.50,52.71 392.14,53.86 396.65,55.48 400.98,57.53 405.07,59.99 408.91,62.82 412.46,66.04 415.67,69.59 418.52,73.43 420.98,77.53 423.02,81.85 424.64,86.36 425.79,90.99 426.50,95.72 426.70,99.97"/>
        <lane id="-19_1" index="1" speed="13.90" length="71.26" width="5.38" shape="378.41,57.28 382.24,57.47 386.43,58.09 390.55,59.11 394.55,60.55 398.39,62.36 402.02,64.55 405.43,67.07 408.58,69.92 411.43,73.07 413.96,76.48 416.14,80.12 417.95,83.95 419.39,87.95 420.41,92.06 421.04,96.26 421.23,100.24"/>