<?xml version='1.0' encoding='UTF-8'?>
<edges>
  <edge id="1" from="40" to="39" numLanes="2" width="5.375" shape="4.500000,105.000000 -64.500000,104.999747 "/>
  <edge id="-1" to="40" from="39" numLanes="2" width="5.375" shape="-64.500000,104.999747 4.500000,105.000000 "/>
  <edge id="3" from="38" to="37" numLanes="2" width="5.375" shape="-105.000000,64.500000 -104.999493,-4.500000 "/>
  <edge id="-3" to="38" from="37" numLanes="2" width="5.375" shape="-104.999493,-4.500000 -105.000000,64.500000 "/>
  <edge id="5" from="43" to="25" numLanes="2" width="5.375" shape="4.500000,-45.000000 -25.500000,-45.000110 "/>
  <edge id="-5" to="43" from="25" numLanes="2" width="5.375" shape="-25.500000,-45.000110 4.500000,-45.000000 "/>
  <edge id="7" from="26" to="44" numLanes="2" width="5.375" shape="45.000000,25.500000 45.000220,-4.500000 "/>
  <edge id="-7" to="26" from="44" numLanes="2" width="5.375" shape="45.000220,-4.500000 45.000000,25.500000 "/>
  <edge id="9" from="42" to="25" numLanes="2" width="5.375" shape="-45.000000,4.500000 -44.999620,-25.500000 "/>
  <edge id="-9" to="42" from="25" numLanes="2" width="5.375" shape="-44.999620,-25.500000 -45.000000,4.500000 "/>
  <edge id="12" from="27" to="28" numLanes="2" width="5.375" shape="93.000000,-85.500000 93.000000,-76.500000 "/>
  <edge id="-12" to="27" from="28" numLanes="2" width="5.375" shape="93.000000,-76.500000 93.000000,-85.500000 "/>
  <edge id="13" from="36" to="Custom21" numLanes="2" width="5.375" shape="-187.500000,-75.000000 -187.501327,175.000000 "/>
  <edge id="-13" to="36" from="Custom21" numLanes="2" width="5.375" shape="-187.501327,175.000000 -187.500000,-75.000000 "/>
  <edge id="14" from="34" to="35" numLanes="2" width="5.375" shape="52.500000,-165.000000 -97.500000,-165.000551 "/>
  <edge id="-14" to="34" from="35" numLanes="2" width="5.375" shape="-97.500000,-165.000551 52.500000,-165.000000 "/>
  <edge id="15" from="32" to="Custom22" numLanes="2" width="5.375" shape="231.000000,-64.500000 231.000000,135.500000 "/>
  <edge id="-15" to="32" from="Custom22" numLanes="2" width="5.375" shape="231.000000,135.500000 231.000000,-64.500000 "/>
  <edge id="16" from="27" to="33" numLanes="2" width="5.375" shape="112.500000,-105.000000 190.500000,-104.999507 "/>
  <edge id="-16" to="27" from="33" numLanes="2" width="5.375" shape="190.500000,-104.999507 112.500000,-105.000000 "/>
  <edge id="17" from="45" to="27" numLanes="2" width="5.375" shape="-4.500000,-105.000000 73.500000,-104.999507 "/>
  <edge id="-17" to="45" from="27" numLanes="2" width="5.375" shape="73.500000,-104.999507 -4.500000,-105.000000 "/>
  <edge id="23" from="26" to="41" numLanes="2" width="5.375" shape="25.500000,45.000000 -4.500000,45.000031 "/>
  <edge id="-23" to="26" from="41" numLanes="2" width="5.375" shape="-4.500000,45.000031 25.500000,45.000000 "/>
  <edge id="24" from="26" to="31" numLanes="2" width="5.375" shape="64.500000,45.000000 133.500000,45.000070 "/>
  <edge id="-24" to="26" from="31" numLanes="2" width="5.375" shape="133.500000,45.000070 64.500000,45.000000 "/>
  <edge id="0" from="40" to="26" numLanes="2" width="5.375" shape="4.499959,105.000000 8.469662,104.804985 12.401136,104.221808 16.256517,103.256087 19.998675,101.917123 23.591572,100.217809 27.000606,98.174511 30.192946,95.806908 33.137848,93.137801 35.806950,90.192895 38.174548,87.000551 40.217840,83.591514 41.917148,79.998614 43.256107,76.256453 44.221821,72.401071 44.804991,68.469596 45.000000,64.499893 "/>
  <edge id="-0" to="40" from="26" numLanes="2" width="5.375" shape="45.000000,64.499893 44.804991,68.469596 44.221821,72.401071 43.256107,76.256453 41.917148,79.998614 40.217840,83.591514 38.174548,87.000551 35.806950,90.192895 33.137848,93.137801 30.192946,95.806908 27.000606,98.174511 23.591572,100.217809 19.998675,101.917123 16.256517,103.256087 12.401136,104.221808 8.469662,104.804985 4.499959,105.000000 "/>
  <edge id="2" from="38" to="39" numLanes="2" width="5.375" shape="-105.000000,64.500000 -104.804981,68.469703 -104.221800,72.401176 -103.256076,76.256556 -101.917107,79.998713 -100.217789,83.591609 -98.174488,87.000641 -95.806882,90.192978 -93.137772,93.137877 -90.192863,95.806976 -87.000517,98.174571 -83.591478,100.217859 -79.998576,101.917164 -76.256414,103.256119 -72.401030,104.221829 -68.469555,104.804995 -64.499851,105.000000 "/>
  <edge id="-2" to="38" from="39" numLanes="2" width="5.375" shape="-64.499851,105.000000 -68.469555,104.804995 -72.401030,104.221829 -76.256414,103.256119 -79.998576,101.917164 -83.591478,100.217859 -87.000517,98.174571 -90.192863,95.806976 -93.137772,93.137877 -95.806882,90.192978 -98.174488,87.000641 -100.217789,83.591609 -101.917107,79.998713 -103.256076,76.256556 -104.221800,72.401176 -104.804981,68.469703 -105.000000,64.500000 "/>
  <edge id="4" from="25" to="37" numLanes="2" width="5.375" shape="-64.499851,-45.000000 -68.469555,-44.804995 -72.401030,-44.221829 -76.256414,-43.256119 -79.998576,-41.917164 -83.591478,-40.217859 -87.000517,-38.174571 -90.192863,-35.806976 -93.137772,-33.137877 -95.806882,-30.192978 -98.174488,-27.000641 -100.217789,-23.591609 -101.917107,-19.998713 -103.256076,-16.256556 -104.221800,-12.401176 -104.804981,-8.469703 -105.000000,-4.500000 "/>
  <edge id="-4" to="25" from="37" numLanes="2" width="5.375" shape="-105.000000,-4.500000 -104.804981,-8.469703 -104.221800,-12.401176 -103.256076,-16.256556 -101.917107,-19.998713 -100.217789,-23.591609 -98.174488,-27.000641 -95.806882,-30.192978 -93.137772,-33.137877 -90.192863,-35.806976 -87.000517,-38.174571 -83.591478,-40.217859 -79.998576,-41.917164 -76.256414,-43.256119 -72.401030,-44.221829 -68.469555,-44.804995 -64.499851,-45.000000 "/>
  <edge id="6" from="44" to="43" numLanes="2" width="5.375" shape="45.000000,-4.499702 44.805010,-8.469407 44.221858,-12.400884 43.256162,-16.256271 41.917221,-19.998438 40.217930,-23.591346 38.174654,-27.000393 35.807071,-30.192748 33.137982,-33.137667 30.193093,-35.806788 27.000765,-38.174406 23.591740,-40.217719 19.998851,-41.917050 16.256698,-43.256032 12.401322,-44.221771 8.469851,-44.804966 4.500149,-45.000000 "/>
  <edge id="-6" to="44" from="43" numLanes="2" width="5.375" shape="4.500149,-45.000000 8.469851,-44.804966 12.401322,-44.221771 16.256698,-43.256032 19.998851,-41.917050 23.591740,-40.217719 27.000765,-38.174406 30.193093,-35.806788 33.137982,-33.137667 35.807071,-30.192748 38.174654,-27.000393 40.217930,-23.591346 41.917221,-19.998438 43.256162,-16.256271 44.221858,-12.400884 44.805010,-8.469407 45.000000,-4.499702 "/>
  <edge id="8" from="42" to="41" numLanes="2" width="5.375" shape="-45.000000,4.500000 -44.804981,8.469703 -44.221800,12.401176 -43.256076,16.256556 -41.917107,19.998713 -40.217789,23.591609 -38.174488,27.000641 -35.806882,30.192978 -33.137772,33.137877 -30.192863,35.806976 -27.000517,38.174571 -23.591478,40.217859 -19.998576,41.917164 -16.256414,43.256119 -12.401030,44.221829 -8.469555,44.804995 -4.499851,45.000000 "/>
  <edge id="-8" to="42" from="41" numLanes="2" width="5.375" shape="-4.499851,45.000000 -8.469555,44.804995 -12.401030,44.221829 -16.256414,43.256119 -19.998576,41.917164 -23.591478,40.217859 -27.000517,38.174571 -30.192863,35.806976 -33.137772,33.137877 -35.806882,30.192978 -38.174488,27.000641 -40.217789,23.591609 -41.917107,19.998713 -43.256076,16.256556 -44.221800,12.401176 -44.804981,8.469703 -45.000000,4.500000 "/>
  <edge id="10" from="45" to="25" numLanes="2" width="5.375" shape="-4.499851,-105.000000 -8.469555,-104.804995 -12.401030,-104.221829 -16.256414,-103.256119 -19.998576,-101.917164 -23.591478,-100.217859 -27.000517,-98.174571 -30.192863,-95.806976 -33.137772,-93.137877 -35.806882,-90.192978 -38.174488,-87.000641 -40.217789,-83.591609 -41.917107,-79.998713 -43.256076,-76.256556 -44.221800,-72.401176 -44.804981,-68.469703 -45.000000,-64.500000 "/>
  <edge id="-10" to="45" from="25" numLanes="2" width="5.375" shape="-45.000000,-64.500000 -44.804981,-68.469703 -44.221800,-72.401176 -43.256076,-76.256556 -41.917107,-79.998713 -40.217789,-83.591609 -38.174488,-87.000641 -35.806882,-90.192978 -33.137772,-93.137877 -30.192863,-95.806976 -27.000517,-98.174571 -23.591478,-100.217859 -19.998576,-101.917164 -16.256414,-103.256119 -12.401030,-104.221829 -8.469555,-104.804995 -4.499851,-105.000000 "/>
  <edge id="11" from="35" to="36" numLanes="2" width="5.375" shape="-97.499669,-165.000000 -106.321234,-164.566656 -115.057845,-163.270732 -123.625364,-161.124708 -131.941280,-158.149253 -139.925506,-154.373021 -147.501149,-149.832380 -154.595252,-144.571059 -161.139493,-138.639727 -167.070849,-132.095507 -172.332196,-125.001424 -176.872865,-117.425797 -180.649126,-109.441585 -183.624612,-101.125680 -185.770667,-92.558170 -187.066623,-83.821563 -187.500000,-75.000000 "/>
  <edge id="-11" to="35" from="36" numLanes="2" width="5.375" shape="-187.500000,-75.000000 -187.066623,-83.821563 -185.770667,-92.558170 -183.624612,-101.125680 -180.649126,-109.441585 -176.872865,-117.425797 -172.332196,-125.001424 -167.070849,-132.095507 -161.139493,-138.639727 -154.595252,-144.571059 -147.501149,-149.832380 -139.925506,-154.373021 -131.941280,-158.149253 -123.625364,-161.124708 -115.057845,-163.270732 -106.321234,-164.566656 -97.499669,-165.000000 "/>
  <edge id="18" from="28" to="29" numLanes="2" width="5.375" shape="93.000000,-76.500215 93.194998,-72.530510 93.778158,-68.599035 94.743862,-64.743650 96.082811,-61.001485 97.782109,-57.408581 99.825392,-53.999538 102.192982,-50.807188 104.862076,-47.862275 107.806971,-45.193160 110.999304,-42.825548 114.408333,-40.782242 118.001225,-39.082918 121.743381,-37.743944 125.598759,-36.778213 129.530231,-36.195026 133.499934,-36.000000 "/>
  <edge id="-18" to="28" from="29" numLanes="2" width="5.375" shape="133.499934,-36.000000 129.530231,-36.195026 125.598759,-36.778213 121.743381,-37.743944 118.001225,-39.082918 114.408333,-40.782242 110.999304,-42.825548 107.806971,-45.193160 104.862076,-47.862275 102.192982,-50.807188 99.825392,-53.999538 97.782109,-57.408581 96.082811,-61.001485 94.743862,-64.743650 93.778158,-68.599035 93.194998,-72.530510 93.000000,-76.500215 "/>
  <edge id="19" from="32" to="33" numLanes="2" width="5.375" shape="231.000000,-64.499702 230.805010,-68.469407 230.221858,-72.400884 229.256162,-76.256271 227.917221,-79.998438 226.217930,-83.591346 224.174654,-87.000393 221.807071,-90.192748 219.137982,-93.137667 216.193093,-95.806788 213.000765,-98.174406 209.591740,-100.217719 205.998851,-101.917050 202.256698,-103.256032 198.401322,-104.221771 194.469851,-104.804966 190.500149,-105.000000 "/>
  <edge id="-19" to="32" from="33" numLanes="2" width="5.375" shape="190.500149,-105.000000 194.469851,-104.804966 198.401322,-104.221771 202.256698,-103.256032 205.998851,-101.917050 209.591740,-100.217719 213.000765,-98.174406 216.193093,-95.806788 219.137982,-93.137667 221.807071,-90.192748 224.174654,-87.000393 226.217930,-83.591346 227.917221,-79.998438 229.256162,-76.256271 230.221858,-72.400884 230.805010,-68.469407 231.000000,-64.499702 "/>
  <edge id="20" from="27" to="34" numLanes="2" width="5.375" shape="93.000000,-124.499702 92.805010,-128.469407 92.221858,-132.400884 91.256162,-136.256271 89.917221,-139.998438 88.217930,-143.591346 86.174654,-147.000393 83.807071,-150.192748 81.137982,-153.137667 78.193093,-155.806788 75.000765,-158.174406 71.591740,-160.217719 67.998851,-161.917050 64.256698,-163.256032 60.401322,-164.221771 56.469851,-164.804966 52.500149,-165.000000 "/>
  <edge id="-20" to="27" from="34" numLanes="2" width="5.375" shape="52.500149,-165.000000 56.469851,-164.804966 60.401322,-164.221771 64.256698,-163.256032 67.998851,-161.917050 71.591740,-160.217719 75.000765,-158.174406 78.193093,-155.806788 81.137982,-153.137667 83.807071,-150.192748 86.174654,-147.000393 88.217930,-143.591346 89.917221,-139.998438 91.256162,-136.256271 92.221858,-132.400884 92.805010,-128.469407 93.000000,-124.499702 "/>
  <edge id="21" from="30" to="29" numLanes="2" width="5.375" shape="174.000000,4.500512 173.805031,0.530807 173.221900,-3.400674 172.256224,-7.256066 170.917303,-10.998240 169.218031,-14.591157 167.174773,-18.000215 164.807207,-21.192582 162.138134,-24.137515 159.193259,-26.806651 156.000943,-29.174286 152.591930,-31.217618 148.999049,-32.916968 145.256904,-34.255970 141.401533,-35.221729 137.470065,-35.804945 133.500364,-36.000000 "/>
  <edge id="-21" to="30" from="29" numLanes="2" width="5.375" shape="133.500364,-36.000000 137.470065,-35.804945 141.401533,-35.221729 145.256904,-34.255970 148.999049,-32.916968 152.591930,-31.217618 156.000943,-29.174286 159.193259,-26.806651 162.138134,-24.137515 164.807207,-21.192582 167.174773,-18.000215 169.218031,-14.591157 170.917303,-10.998240 172.256224,-7.256066 173.221900,-3.400674 173.805031,0.530807 174.000000,4.500512 "/>
  <edge id="22" from="31" to="30" numLanes="2" width="5.375" shape="133.499554,45.000000 137.469259,44.805024 141.400739,44.221887 145.256129,43.256205 148.998301,41.917278 152.591215,40.218000 156.000270,38.174736 159.192633,35.807165 162.137562,33.138088 164.806693,30.193208 167.174323,27.000888 169.217649,23.591871 170.916993,19.998988 172.255989,16.256841 173.221742,12.401468 173.804951,8.470000 174.000000,4.500298 "/>
  <edge id="-22" to="31" from="30" numLanes="2" width="5.375" shape="174.000000,4.500298 173.804951,8.470000 173.221742,12.401468 172.255989,16.256841 170.916993,19.998988 169.217649,23.591871 167.174323,27.000888 164.806693,30.193208 162.137562,33.138088 159.192633,35.807165 156.000270,38.174736 152.591215,40.218000 148.998301,41.917278 145.256129,43.256205 141.400739,44.221887 137.469259,44.805024 133.499554,45.000000 "/>
</edges>
