<?xml version="1.0" encoding="UTF-8"?>

<!-- generated on Fri Nov  5 11:36:51 2021 by SUMO netconvert Version 0.30.0
-->

<net version="0.27" xmlns:xsi="http://www.w3.org/2001/XMLSchema-instance" xsi:noNamespaceSchemaLocation="http://sumo.dlr.de/xsd/net_file.xsd">

    <location netOffset="175.00,187.51" convBoundary="0.00,0.00,340.00,418.51" origBoundary="-175.00,-187.51,165.00,231.01" projParameter="!"/>

    <edge id=":25_0" function="internal">
        <lane id=":25_0_0" index="0" speed="13.90" length="4.09" width="5.38" shape="211.79,153.26 211.63,152.15 211.15,151.36 210.36,150.88 209.25,150.72"/>
    </edge>
    <edge id=":25_1" function="internal">
        <lane id=":25_1_0" index="0" speed="13.90" length="21.50" width="5.38" shape="211.79,153.26 212.21,131.76"/>
        <lane id=":25_1_1" index="1" speed="13.90" length="21.50" width="5.38" shape="217.26,153.26 217.69,131.76"/>
    </edge>
    <edge id=":25_3" function="internal">
        <lane id=":25_3_0" index="0" speed="13.90" length="22.35" width="5.38" shape="217.26,153.26 218.11,146.92 220.63,142.49 224.85,139.96 230.75,139.34"/>
    </edge>
    <edge id=":25_4" function="internal">
        <lane id=":25_4_0" index="0" speed="13.90" length="8.00" width="5.38" shape="217.26,153.26 218.63,151.21 220.00,150.52 221.37,151.21 222.74,153.26"/>
    </edge>
    <edge id=":25_5" function="internal">
        <lane id=":25_5_0" index="0" speed="13.90" length="4.48" width="5.38" shape="230.75,150.30 229.64,150.44 228.85,150.98 228.37,151.92 228.21,153.26"/>
    </edge>
    <edge id=":25_6" function="internal">
        <lane id=":25_6_0" index="0" speed="13.90" length="21.50" width="5.38" shape="230.75,150.30 209.25,150.72"/>
        <lane id=":25_6_1" index="1" speed="13.90" length="21.50" width="5.38" shape="230.75,144.82 209.25,145.25"/>
    </edge>
    <edge id=":25_8" function="internal">
        <lane id=":25_8_0" index="0" speed="13.90" length="8.56" width="5.38" shape="230.75,144.82 225.27,143.77 222.75,142.19"/>
    </edge>
    <edge id=":25_9" function="internal">
        <lane id=":25_9_0" index="0" speed="13.90" length="4.00" width="5.38" shape="230.75,144.82 228.69,143.45 228.01,142.08"/>
    </edge>
    <edge id=":25_20" function="internal">
        <lane id=":25_20_0" index="0" speed="13.90" length="12.08" width="5.38" shape="222.75,142.19 221.26,141.25 218.73,137.24 217.69,131.76"/>
    </edge>
    <edge id=":25_21" function="internal">
        <lane id=":25_21_0" index="0" speed="13.90" length="4.00" width="5.38" shape="228.01,142.08 228.69,140.71 230.75,139.34"/>
    </edge>
    <edge id=":25_10" function="internal">
        <lane id=":25_10_0" index="0" speed="13.90" length="3.31" width="5.38" shape="228.65,131.76 228.82,132.64 229.23,133.28 229.87,133.69 230.75,133.86"/>
    </edge>
    <edge id=":25_11" function="internal">
        <lane id=":25_11_0" index="0" speed="13.90" length="21.50" width="5.38" shape="228.65,131.76 228.21,153.26"/>
        <lane id=":25_11_1" index="1" speed="13.90" length="21.50" width="5.38" shape="223.17,131.76 222.74,153.26"/>
    </edge>
    <edge id=":25_13" function="internal">
        <lane id=":25_13_0" index="0" speed="13.90" length="22.35" width="5.38" shape="223.17,131.76 222.55,137.66 220.02,141.87 215.59,144.40 209.25,145.25"/>
    </edge>
    <edge id=":25_14" function="internal">
        <lane id=":25_14_0" index="0" speed="13.90" length="8.01" width="5.38" shape="223.17,131.76 221.80,133.81 220.43,134.50 219.06,133.81 217.69,131.76"/>
    </edge>
    <edge id=":25_15" function="internal">
        <lane id=":25_15_0" index="0" speed="13.90" length="4.48" width="5.38" shape="209.25,134.30 210.59,134.14 211.53,133.66 212.07,132.87 212.21,131.76"/>
    </edge>
    <edge id=":25_16" function="internal">
        <lane id=":25_16_0" index="0" speed="13.90" length="21.50" width="5.38" shape="209.25,134.30 230.75,133.86"/>
        <lane id=":25_16_1" index="1" speed="13.90" length="21.50" width="5.38" shape="209.25,139.77 230.75,139.34"/>
    </edge>
    <edge id=":25_18" function="internal">
        <lane id=":25_18_0" index="0" speed="13.90" length="9.40" width="5.38" shape="209.25,139.77 215.15,140.61 218.10,142.38"/>
    </edge>
    <edge id=":25_19" function="internal">
        <lane id=":25_19_0" index="0" speed="13.90" length="4.00" width="5.38" shape="209.25,139.77 211.30,141.14 211.99,142.51"/>
    </edge>
    <edge id=":25_22" function="internal">
        <lane id=":25_22_0" index="0" speed="13.90" length="12.35" width="5.38" shape="218.10,142.38 219.37,143.14 221.89,147.36 222.74,153.26"/>
    </edge>
    <edge id=":25_23" function="internal">
        <lane id=":25_23_0" index="0" speed="13.90" length="4.00" width="5.38" shape="211.99,142.51 211.30,143.88 209.25,145.25"/>
    </edge>
    <edge id=":26_0" function="internal">
        <lane id=":26_0_0" index="0" speed="13.90" length="3.70" width="5.38" shape="121.79,243.26 121.63,242.39 121.15,241.75 120.36,241.34 119.25,241.16"/>
    </edge>
    <edge id=":26_1" function="internal">
        <lane id=":26_1_0" index="0" speed="13.90" length="21.50" width="5.38" shape="121.79,243.26 121.79,221.76"/>
        <lane id=":26_1_1" index="1" speed="13.90" length="21.50" width="5.38" shape="127.26,243.26 127.26,221.76"/>
    </edge>
    <edge id=":26_3" function="internal">
        <lane id=":26_3_0" index="0" speed="13.90" length="9.74" width="5.38" shape="127.26,243.26 128.11,237.36 130.05,234.12"/>
    </edge>
    <edge id=":26_4" function="internal">
        <lane id=":26_4_0" index="0" speed="13.90" length="4.00" width="5.38" shape="127.26,243.26 128.63,241.21 130.00,240.52"/>
    </edge>
    <edge id=":26_20" function="internal">
        <lane id=":26_20_0" index="0" speed="13.90" length="12.01" width="5.38" shape="130.05,234.12 130.63,233.14 134.85,230.61 140.75,229.77"/>
    </edge>
    <edge id=":26_21" function="internal">
        <lane id=":26_21_0" index="0" speed="13.90" length="4.00" width="5.38" shape="130.00,240.52 131.37,241.21 132.74,243.26"/>
    </edge>
    <edge id=":26_5" function="internal">
        <lane id=":26_5_0" index="0" speed="13.90" length="4.09" width="5.38" shape="140.75,240.72 139.64,240.88 138.85,241.36 138.37,242.15 138.21,243.26"/>
    </edge>
    <edge id=":26_6" function="internal">
        <lane id=":26_6_0" index="0" speed="13.90" length="21.50" width="5.38" shape="140.75,240.72 119.25,241.16"/>
        <lane id=":26_6_1" index="1" speed="13.90" length="21.50" width="5.38" shape="140.75,235.25 119.25,235.68"/>
    </edge>
    <edge id=":26_8" function="internal">
        <lane id=":26_8_0" index="0" speed="13.90" length="21.75" width="5.38" shape="140.75,235.25 134.85,234.40 130.63,231.87 128.11,227.66 127.26,221.76"/>
    </edge>
    <edge id=":26_9" function="internal">
        <lane id=":26_9_0" index="0" speed="13.90" length="8.00" width="5.38" shape="140.75,235.25 138.70,233.88 138.01,232.51 138.70,231.14 140.75,229.77"/>
    </edge>
    <edge id=":26_10" function="internal">
        <lane id=":26_10_0" index="0" speed="13.90" length="4.09" width="5.38" shape="138.21,221.76 138.37,222.87 138.85,223.66 139.64,224.14 140.75,224.30"/>
    </edge>
    <edge id=":26_11" function="internal">
        <lane id=":26_11_0" index="0" speed="13.90" length="21.50" width="5.38" shape="138.21,221.76 138.21,243.26"/>
        <lane id=":26_11_1" index="1" speed="13.90" length="21.50" width="5.38" shape="132.74,221.76 132.74,243.26"/>
    </edge>
    <edge id=":26_13" function="internal">
        <lane id=":26_13_0" index="0" speed="13.90" length="10.32" width="5.38" shape="132.74,221.76 131.89,228.10 129.95,231.51"/>
    </edge>
    <edge id=":26_14" function="internal">
        <lane id=":26_14_0" index="0" speed="13.90" length="4.00" width="5.38" shape="132.74,221.76 131.37,223.81 130.00,224.50"/>
    </edge>
    <edge id=":26_22" function="internal">
        <lane id=":26_22_0" index="0" speed="13.90" length="12.03" width="5.38" shape="129.95,231.51 129.37,232.53 125.15,235.06 119.25,235.68"/>
    </edge>
    <edge id=":26_23" function="internal">
        <lane id=":26_23_0" index="0" speed="13.90" length="4.00" width="5.38" shape="130.00,224.50 128.63,223.81 127.26,221.76"/>
    </edge>
    <edge id=":26_15" function="internal">
        <lane id=":26_15_0" index="0" speed="13.90" length="4.48" width="5.38" shape="119.25,224.72 120.36,224.58 121.15,224.04 121.63,223.10 121.79,221.76"/>
    </edge>
    <edge id=":26_16" function="internal">
        <lane id=":26_16_0" index="0" speed="13.90" length="21.50" width="5.38" shape="119.25,224.72 140.75,224.30"/>
        <lane id=":26_16_1" index="1" speed="13.90" length="21.50" width="5.38" shape="119.25,230.20 140.75,229.77"/>
    </edge>
    <edge id=":26_18" function="internal">
        <lane id=":26_18_0" index="0" speed="13.90" length="21.17" width="5.38" shape="119.25,230.20 125.15,231.26 129.37,233.79 131.89,237.79 132.74,243.26"/>
    </edge>
    <edge id=":26_19" function="internal">
        <lane id=":26_19_0" index="0" speed="13.90" length="8.01" width="5.38" shape="119.25,230.20 121.31,231.57 121.99,232.94 121.31,234.31 119.25,235.68"/>
    </edge>
    <edge id=":27_0" function="internal">
        <lane id=":27_0_0" index="0" speed="13.90" length="4.09" width="5.38" shape="271.79,291.26 271.63,290.15 271.15,289.35 270.36,288.88 269.25,288.72"/>
    </edge>
    <edge id=":27_1" function="internal">
        <lane id=":27_1_0" index="0" speed="13.90" length="21.50" width="5.38" shape="271.79,291.26 271.79,269.76"/>
        <lane id=":27_1_1" index="1" speed="13.90" length="21.50" width="5.38" shape="277.26,291.26 277.26,269.76"/>
    </edge>
    <edge id=":27_3" function="internal">
        <lane id=":27_3_0" index="0" speed="13.90" length="9.17" width="5.38" shape="277.26,291.26 278.11,285.79 280.05,282.72"/>
    </edge>
    <edge id=":27_4" function="internal">
        <lane id=":27_4_0" index="0" speed="13.90" length="4.00" width="5.38" shape="277.26,291.26 278.63,289.21 280.00,288.52"/>
    </edge>
    <edge id=":27_20" function="internal">
        <lane id=":27_20_0" index="0" speed="13.90" length="12.01" width="5.38" shape="280.05,282.72 280.63,281.79 284.85,279.26 290.75,278.20"/>
    </edge>
    <edge id=":27_21" function="internal">
        <lane id=":27_21_0" index="0" speed="13.90" length="4.00" width="5.38" shape="280.00,288.52 281.37,289.21 282.74,291.26"/>
    </edge>
    <edge id=":27_5" function="internal">
        <lane id=":27_5_0" index="0" speed="13.90" length="3.70" width="5.38" shape="290.75,289.16 289.64,289.34 288.85,289.75 288.37,290.39 288.21,291.26"/>
    </edge>
    <edge id=":27_6" function="internal">
        <lane id=":27_6_0" index="0" speed="13.90" length="21.50" width="5.38" shape="290.75,289.16 269.25,288.72"/>
        <lane id=":27_6_1" index="1" speed="13.90" length="21.50" width="5.38" shape="290.75,283.68 269.25,283.25"/>
    </edge>
    <edge id=":27_8" function="internal">
        <lane id=":27_8_0" index="0" speed="13.90" length="22.35" width="5.38" shape="290.75,283.68 284.85,283.06 280.63,280.53 278.11,276.10 277.26,269.76"/>
    </edge>
    <edge id=":27_9" function="internal">
        <lane id=":27_9_0" index="0" speed="13.90" length="8.01" width="5.38" shape="290.75,283.68 288.69,282.31 288.01,280.94 288.69,279.57 290.75,278.20"/>
    </edge>
    <edge id=":27_10" function="internal">
        <lane id=":27_10_0" index="0" speed="13.90" length="4.48" width="5.38" shape="288.21,269.76 288.37,271.10 288.85,272.04 289.64,272.58 290.75,272.72"/>
    </edge>
    <edge id=":27_11" function="internal">
        <lane id=":27_11_0" index="0" speed="13.90" length="21.50" width="5.38" shape="288.21,269.76 288.21,291.26"/>
        <lane id=":27_11_1" index="1" speed="13.90" length="21.50" width="5.38" shape="282.74,269.76 282.74,291.26"/>
    </edge>
    <edge id=":27_13" function="internal">
        <lane id=":27_13_0" index="0" speed="13.90" length="9.74" width="5.38" shape="282.74,269.76 281.90,275.66 279.95,278.90"/>
    </edge>
    <edge id=":27_14" function="internal">
        <lane id=":27_14_0" index="0" speed="13.90" length="4.00" width="5.38" shape="282.74,269.76 281.37,271.81 280.00,272.50"/>
    </edge>
    <edge id=":27_22" function="internal">
        <lane id=":27_22_0" index="0" speed="13.90" length="12.01" width="5.38" shape="279.95,278.90 279.37,279.87 275.15,282.40 269.25,283.25"/>
    </edge>
    <edge id=":27_23" function="internal">
        <lane id=":27_23_0" index="0" speed="13.90" length="4.00" width="5.38" shape="280.00,272.50 278.63,271.81 277.26,269.76"/>
    </edge>
    <edge id=":27_15" function="internal">
        <lane id=":27_15_0" index="0" speed="13.90" length="4.09" width="5.38" shape="269.25,272.30 270.36,272.14 271.15,271.66 271.63,270.87 271.79,269.76"/>
    </edge>
    <edge id=":27_16" function="internal">
        <lane id=":27_16_0" index="0" speed="13.90" length="21.50" width="5.38" shape="269.25,272.30 290.75,272.72"/>
        <lane id=":27_16_1" index="1" speed="13.90" length="21.50" width="5.38" shape="269.25,277.77 290.75,278.20"/>
    </edge>
    <edge id=":27_18" function="internal">
        <lane id=":27_18_0" index="0" speed="13.90" length="21.75" width="5.38" shape="269.25,277.77 275.15,278.61 279.37,281.14 281.89,285.36 282.74,291.26"/>
    </edge>
    <edge id=":27_19" function="internal">
        <lane id=":27_19_0" index="0" speed="13.90" length="8.00" width="5.38" shape="269.25,277.77 271.30,279.14 271.99,280.51 271.30,281.88 269.25,283.25"/>
    </edge>
    <edge id=":28_0" function="internal">
        <lane id=":28_0_0" index="0" speed="13.90" length="0.13" width="5.38" shape="251.64,288.72 251.77,288.72"/>
        <lane id=":28_0_1" index="1" speed="13.90" length="0.13" width="5.38" shape="251.64,283.25 251.50,283.25"/>
    </edge>
    <edge id=":28_2" function="internal">
        <lane id=":28_2_0" index="0" speed="13.90" length="4.00" width="5.38" shape="251.64,283.25 249.58,281.88 248.90,280.51"/>
    </edge>
    <edge id=":28_6" function="internal">
        <lane id=":28_6_0" index="0" speed="13.90" length="4.00" width="5.38" shape="248.90,280.51 249.58,279.14 251.64,277.77"/>
    </edge>
    <edge id=":28_3" function="internal">
        <lane id=":28_3_0" index="0" speed="13.90" length="0.54" width="5.38" shape="250.96,272.31 251.64,272.30"/>
        <lane id=":28_3_1" index="1" speed="13.90" length="0.54" width="5.38" shape="251.23,277.78 251.64,277.77"/>
    </edge>
    <edge id=":28_5" function="internal">
        <lane id=":28_5_0" index="0" speed="13.90" length="4.00" width="5.38" shape="251.23,277.78 253.35,279.05 254.10,280.38"/>
    </edge>
    <edge id=":28_7" function="internal">
        <lane id=":28_7_0" index="0" speed="13.90" length="4.00" width="5.38" shape="254.10,280.38 253.48,281.78 251.50,283.25"/>
    </edge>
    <edge id=":29_0" function="internal">
        <lane id=":29_0_0" index="0" speed="13.90" length="0.10" width="5.38" shape="219.20,321.41 219.20,321.41"/>
        <lane id=":29_0_1" index="1" speed="13.90" length="0.10" width="5.38" shape="213.73,321.14 213.73,321.14"/>
    </edge>
    <edge id=":29_2" function="internal">
        <lane id=":29_2_0" index="0" speed="13.90" length="4.00" width="5.38" shape="213.73,321.14 212.27,323.12 210.87,323.74"/>
    </edge>
    <edge id=":29_6" function="internal">
        <lane id=":29_6_0" index="0" speed="13.90" length="4.00" width="5.38" shape="210.87,323.74 209.53,322.99 208.27,320.87"/>
    </edge>
    <edge id=":29_3" function="internal">
        <lane id=":29_3_0" index="0" speed="13.90" length="0.10" width="5.38" shape="202.80,320.61 202.80,320.60"/>
        <lane id=":29_3_1" index="1" speed="13.90" length="0.10" width="5.38" shape="208.27,320.87 208.27,320.87"/>
    </edge>
    <edge id=":29_5" function="internal">
        <lane id=":29_5_0" index="0" speed="13.90" length="4.00" width="5.38" shape="208.27,320.87 209.73,318.89 211.13,318.27"/>
    </edge>
    <edge id=":29_7" function="internal">
        <lane id=":29_7_0" index="0" speed="13.90" length="4.00" width="5.38" shape="211.13,318.27 212.47,319.02 213.73,321.14"/>
    </edge>
    <edge id=":30_0" function="internal">
        <lane id=":30_0_0" index="0" speed="13.90" length="1.61" width="5.38" shape="171.44,369.68 170.88,369.71 170.50,369.72 170.12,369.71 169.56,369.68"/>
        <lane id=":30_0_1" index="1" speed="13.90" length="1.61" width="5.38" shape="171.17,364.22 170.77,364.23 170.50,364.24 170.23,364.23 169.83,364.22"/>
    </edge>
    <edge id=":30_2" function="internal">
        <lane id=":30_2_0" index="0" speed="13.90" length="4.00" width="5.38" shape="171.17,364.22 169.05,362.95 168.30,361.62"/>
    </edge>
    <edge id=":30_6" function="internal">
        <lane id=":30_6_0" index="0" speed="13.90" length="4.00" width="5.38" shape="168.30,361.62 168.92,360.22 170.90,358.75"/>
    </edge>
    <edge id=":30_3" function="internal">
        <lane id=":30_3_0" index="0" speed="13.90" length="0.53" width="5.38" shape="170.37,353.28 170.45,353.28 170.50,353.28 170.55,353.28 170.63,353.28"/>
        <lane id=":30_3_1" index="1" speed="13.90" length="0.53" width="5.38" shape="170.10,358.75 170.34,358.76 170.50,358.76 170.66,358.76 170.90,358.75"/>
    </edge>
    <edge id=":30_5" function="internal">
        <lane id=":30_5_0" index="0" speed="13.90" length="4.00" width="5.38" shape="170.10,358.75 172.08,360.22 172.70,361.62"/>
    </edge>
    <edge id=":30_7" function="internal">
        <lane id=":30_7_0" index="0" speed="13.90" length="4.00" width="5.38" shape="172.70,361.62 171.95,362.95 169.83,364.22"/>
    </edge>
    <edge id=":31_0" function="internal">
        <lane id=":31_0_0" index="0" speed="13.90" length="0.54" width="5.38" shape="121.80,321.55 121.79,320.87"/>
        <lane id=":31_0_1" index="1" speed="13.90" length="0.54" width="5.38" shape="127.27,321.28 127.26,320.87"/>
    </edge>
    <edge id=":31_2" function="internal">
        <lane id=":31_2_0" index="0" speed="13.90" length="4.00" width="5.38" shape="127.27,321.28 128.54,319.16 129.87,318.41"/>
    </edge>
    <edge id=":31_6" function="internal">
        <lane id=":31_6_0" index="0" speed="13.90" length="4.00" width="5.38" shape="129.87,318.41 131.27,319.03 132.74,321.01"/>
    </edge>
    <edge id=":31_3" function="internal">
        <lane id=":31_3_0" index="0" speed="13.90" length="0.13" width="5.38" shape="138.21,320.87 138.21,320.74"/>
        <lane id=":31_3_1" index="1" speed="13.90" length="0.13" width="5.38" shape="132.74,320.87 132.74,321.01"/>
    </edge>
    <edge id=":31_5" function="internal">
        <lane id=":31_5_0" index="0" speed="13.90" length="4.00" width="5.38" shape="132.74,320.87 131.37,322.93 130.00,323.61"/>
    </edge>
    <edge id=":31_7" function="internal">
        <lane id=":31_7_0" index="0" speed="13.90" length="4.00" width="5.38" shape="130.00,323.61 128.63,322.93 127.26,320.87"/>
    </edge>
    <edge id=":32_0" function="internal">
        <lane id=":32_0_0" index="0" speed="13.90" length="0.54" width="5.38" shape="240.04,426.70 239.36,426.72"/>
        <lane id=":32_0_1" index="1" speed="13.90" length="0.54" width="5.38" shape="239.77,421.24 239.36,421.25"/>
    </edge>
    <edge id=":32_2" function="internal">
        <lane id=":32_2_0" index="0" speed="13.90" length="4.00" width="5.38" shape="239.77,421.24 237.65,419.97 236.90,418.64"/>
    </edge>
    <edge id=":32_6" function="internal">
        <lane id=":32_6_0" index="0" speed="13.90" length="4.00" width="5.38" shape="236.90,418.64 237.52,417.24 239.50,415.77"/>
    </edge>
    <edge id=":32_3" function="internal">
        <lane id=":32_3_0" index="0" speed="13.90" length="0.13" width="5.38" shape="239.36,410.30 239.23,410.30"/>
        <lane id=":32_3_1" index="1" speed="13.90" length="0.13" width="5.38" shape="239.36,415.77 239.50,415.77"/>
    </edge>
    <edge id=":32_5" function="internal">
        <lane id=":32_5_0" index="0" speed="13.90" length="4.00" width="5.38" shape="239.36,415.77 241.42,417.14 242.10,418.51"/>
    </edge>
    <edge id=":32_7" function="internal">
        <lane id=":32_7_0" index="0" speed="13.90" length="4.00" width="5.38" shape="242.10,418.51 241.42,419.88 239.36,421.25"/>
    </edge>
    <edge id=":33_0" function="internal">
        <lane id=":33_0_0" index="0" speed="13.90" length="0.54" width="5.38" shape="288.21,377.87 288.20,378.55"/>
        <lane id=":33_0_1" index="1" speed="13.90" length="0.54" width="5.38" shape="282.74,377.87 282.73,378.28"/>
    </edge>
    <edge id=":33_2" function="internal">
        <lane id=":33_2_0" index="0" speed="13.90" length="4.00" width="5.38" shape="282.74,377.87 281.37,379.93 280.00,380.61"/>
    </edge>
    <edge id=":33_6" function="internal">
        <lane id=":33_6_0" index="0" speed="13.90" length="4.00" width="5.38" shape="280.00,380.61 278.63,379.93 277.26,377.87"/>
    </edge>
    <edge id=":33_3" function="internal">
        <lane id=":33_3_0" index="0" speed="13.90" length="0.13" width="5.38" shape="271.79,377.74 271.79,377.87"/>
        <lane id=":33_3_1" index="1" speed="13.90" length="0.13" width="5.38" shape="277.26,378.01 277.26,377.87"/>
    </edge>
    <edge id=":33_5" function="internal">
        <lane id=":33_5_0" index="0" speed="13.90" length="4.00" width="5.38" shape="277.26,378.01 278.73,376.03 280.13,375.41"/>
    </edge>
    <edge id=":33_7" function="internal">
        <lane id=":33_7_0" index="0" speed="13.90" length="4.00" width="5.38" shape="280.13,375.41 281.46,376.16 282.73,378.28"/>
    </edge>
    <edge id=":34_0" function="internal">
        <lane id=":34_0_0" index="0" speed="13.90" length="0.54" width="5.38" shape="348.21,239.87 348.20,240.55"/>
        <lane id=":34_0_1" index="1" speed="13.90" length="0.54" width="5.38" shape="342.74,239.87 342.73,240.28"/>
    </edge>
    <edge id=":34_2" function="internal">
        <lane id=":34_2_0" index="0" speed="13.90" length="4.00" width="5.38" shape="342.74,239.87 341.37,241.93 340.00,242.61"/>
    </edge>
    <edge id=":34_6" function="internal">
        <lane id=":34_6_0" index="0" speed="13.90" length="4.00" width="5.38" shape="340.00,242.61 338.63,241.93 337.26,239.87"/>
    </edge>
    <edge id=":34_3" function="internal">
        <lane id=":34_3_0" index="0" speed="13.90" length="0.13" width="5.38" shape="331.79,239.74 331.79,239.87"/>
        <lane id=":34_3_1" index="1" speed="13.90" length="0.13" width="5.38" shape="337.26,240.01 337.26,239.87"/>
    </edge>
    <edge id=":34_5" function="internal">
        <lane id=":34_5_0" index="0" speed="13.90" length="4.00" width="5.38" shape="337.26,240.01 338.73,238.03 340.13,237.41"/>
    </edge>
    <edge id=":34_7" function="internal">
        <lane id=":34_7_0" index="0" speed="13.90" length="4.00" width="5.38" shape="340.13,237.41 341.46,238.16 342.73,240.28"/>
    </edge>
    <edge id=":35_0" function="internal">
        <lane id=":35_0_0" index="0" speed="13.90" length="0.13" width="5.38" shape="331.79,90.14 331.79,90.28"/>
        <lane id=":35_0_1" index="1" speed="13.90" length="0.13" width="5.38" shape="337.26,90.14 337.26,90.01"/>
    </edge>
    <edge id=":35_2" function="internal">
        <lane id=":35_2_0" index="0" speed="13.90" length="4.00" width="5.38" shape="337.26,90.14 338.63,88.09 340.00,87.41"/>
    </edge>
    <edge id=":35_6" function="internal">
        <lane id=":35_6_0" index="0" speed="13.90" length="4.00" width="5.38" shape="340.00,87.41 341.37,88.09 342.74,90.14"/>
    </edge>
    <edge id=":35_3" function="internal">
        <lane id=":35_3_0" index="0" speed="13.90" length="0.54" width="5.38" shape="348.20,89.47 348.21,90.14"/>
        <lane id=":35_3_1" index="1" speed="13.90" length="0.54" width="5.38" shape="342.73,89.74 342.74,90.14"/>
    </edge>
    <edge id=":35_5" function="internal">
        <lane id=":35_5_0" index="0" speed="13.90" length="4.00" width="5.38" shape="342.73,89.74 341.46,91.86 340.13,92.61"/>
    </edge>
    <edge id=":35_7" function="internal">
        <lane id=":35_7_0" index="0" speed="13.90" length="4.00" width="5.38" shape="340.13,92.61 338.73,91.99 337.26,90.01"/>
    </edge>
    <edge id=":36_0" function="internal">
        <lane id=":36_0_0" index="0" speed="13.90" length="0.13" width="5.38" shape="249.73,8.22 249.86,8.22"/>
        <lane id=":36_0_1" index="1" speed="13.90" length="0.13" width="5.38" shape="250.00,2.75 249.86,2.75"/>
    </edge>
    <edge id=":36_2" function="internal">
        <lane id=":36_2_0" index="0" speed="13.90" length="4.00" width="5.38" shape="250.00,2.75 248.02,1.28 247.40,-0.12"/>
    </edge>
    <edge id=":36_6" function="internal">
        <lane id=":36_6_0" index="0" speed="13.90" length="4.00" width="5.38" shape="247.40,-0.12 248.15,-1.45 250.27,-2.72"/>
    </edge>
    <edge id=":36_3" function="internal">
        <lane id=":36_3_0" index="0" speed="13.90" length="0.54" width="5.38" shape="249.86,-8.20 250.54,-8.19"/>
        <lane id=":36_3_1" index="1" speed="13.90" length="0.54" width="5.38" shape="249.86,-2.73 250.27,-2.72"/>
    </edge>
    <edge id=":36_5" function="internal">
        <lane id=":36_5_0" index="0" speed="13.90" length="4.00" width="5.38" shape="249.86,-2.73 251.92,-1.36 252.60,0.01"/>
    </edge>
    <edge id=":36_7" function="internal">
        <lane id=":36_7_0" index="0" speed="13.90" length="4.00" width="5.38" shape="252.60,0.01 251.92,1.38 249.86,2.75"/>
    </edge>
    <edge id=":37_0" function="internal">
        <lane id=":37_0_0" index="0" speed="13.90" length="0.13" width="5.38" shape="179.23,90.72 179.36,90.72"/>
        <lane id=":37_0_1" index="1" speed="13.90" length="0.13" width="5.38" shape="179.50,85.25 179.36,85.25"/>
    </edge>
    <edge id=":37_2" function="internal">
        <lane id=":37_2_0" index="0" speed="13.90" length="4.00" width="5.38" shape="179.50,85.25 177.52,83.78 176.90,82.38"/>
    </edge>
    <edge id=":37_6" function="internal">
        <lane id=":37_6_0" index="0" speed="13.90" length="4.00" width="5.38" shape="176.90,82.38 177.65,81.05 179.77,79.78"/>
    </edge>
    <edge id=":37_3" function="internal">
        <lane id=":37_3_0" index="0" speed="13.90" length="0.54" width="5.38" shape="179.36,74.30 180.04,74.31"/>
        <lane id=":37_3_1" index="1" speed="13.90" length="0.54" width="5.38" shape="179.36,79.77 179.77,79.78"/>
    </edge>
    <edge id=":37_5" function="internal">
        <lane id=":37_5_0" index="0" speed="13.90" length="4.00" width="5.38" shape="179.36,79.77 181.42,81.14 182.10,82.51"/>
    </edge>
    <edge id=":37_7" function="internal">
        <lane id=":37_7_0" index="0" speed="13.90" length="4.00" width="5.38" shape="182.10,82.51 181.42,83.88 179.36,85.25"/>
    </edge>
    <edge id=":38_0" function="internal">
        <lane id=":38_0_0" index="0" speed="13.90" length="0.13" width="5.38" shape="110.64,90.72 110.77,90.72"/>
        <lane id=":38_0_1" index="1" speed="13.90" length="0.13" width="5.38" shape="110.64,85.25 110.50,85.25"/>
    </edge>
    <edge id=":38_2" function="internal">
        <lane id=":38_2_0" index="0" speed="13.90" length="4.00" width="5.38" shape="110.64,85.25 108.58,83.88 107.90,82.51"/>
    </edge>
    <edge id=":38_6" function="internal">
        <lane id=":38_6_0" index="0" speed="13.90" length="4.00" width="5.38" shape="107.90,82.51 108.58,81.14 110.64,79.77"/>
    </edge>
    <edge id=":38_3" function="internal">
        <lane id=":38_3_0" index="0" speed="13.90" length="0.54" width="5.38" shape="109.96,74.31 110.64,74.30"/>
        <lane id=":38_3_1" index="1" speed="13.90" length="0.54" width="5.38" shape="110.23,79.78 110.64,79.77"/>
    </edge>
    <edge id=":38_5" function="internal">
        <lane id=":38_5_0" index="0" speed="13.90" length="4.00" width="5.38" shape="110.23,79.78 112.35,81.05 113.10,82.38"/>
    </edge>
    <edge id=":38_7" function="internal">
        <lane id=":38_7_0" index="0" speed="13.90" length="4.00" width="5.38" shape="113.10,82.38 112.48,83.78 110.50,85.25"/>
    </edge>
    <edge id=":39_0" function="internal">
        <lane id=":39_0_0" index="0" speed="13.90" length="0.54" width="5.38" shape="61.79,123.15 61.80,122.47"/>
        <lane id=":39_0_1" index="1" speed="13.90" length="0.54" width="5.38" shape="67.26,123.14 67.27,122.74"/>
    </edge>
    <edge id=":39_2" function="internal">
        <lane id=":39_2_0" index="0" speed="13.90" length="4.00" width="5.38" shape="67.26,123.14 68.63,121.09 70.00,120.41"/>
    </edge>
    <edge id=":39_6" function="internal">
        <lane id=":39_6_0" index="0" speed="13.90" length="4.00" width="5.38" shape="70.00,120.41 71.37,121.09 72.74,123.14"/>
    </edge>
    <edge id=":39_3" function="internal">
        <lane id=":39_3_0" index="0" speed="13.90" length="0.13" width="5.38" shape="78.21,123.28 78.21,123.14"/>
        <lane id=":39_3_1" index="1" speed="13.90" length="0.13" width="5.38" shape="72.74,123.01 72.74,123.14"/>
    </edge>
    <edge id=":39_5" function="internal">
        <lane id=":39_5_0" index="0" speed="13.90" length="4.00" width="5.38" shape="72.74,123.01 71.27,124.99 69.87,125.61"/>
    </edge>
    <edge id=":39_7" function="internal">
        <lane id=":39_7_0" index="0" speed="13.90" length="4.00" width="5.38" shape="69.87,125.61 68.54,124.86 67.27,122.74"/>
    </edge>
    <edge id=":40_0" function="internal">
        <lane id=":40_0_0" index="0" speed="13.90" length="0.54" width="5.38" shape="61.80,192.55 61.79,191.87"/>